[VMEM] WARNING: physical memory size is smaller than virtual memory size.

*** ChampSim Multicore Out-of-Order Simulator ***
Warmup Instructions: 5000000
Simulation Instructions: 25000000
Number of CPUs: 1
Page size: 4096

Off-chip DRAM Size: 16 GiB Channels: 1 Width: 64-bit Data Rate: 3205 MT/s
Warmup finished CPU 0 instructions: 5000003 cycles: 1406104 cumulative IPC: 3.556 (Simulation time: 00 hr 00 min 21 sec)
Warmup complete CPU 0 instructions: 5000003 cycles: 1406104 cumulative IPC: 3.556 (Simulation time: 00 hr 00 min 21 sec)
Heartbeat CPU 0 instructions: 10000004 cycles: 7068075 heartbeat IPC: 1.415 cumulative IPC: 0.8831 (Simulation time: 00 hr 01 min 05 sec)
Heartbeat CPU 0 instructions: 20000004 cycles: 18337821 heartbeat IPC: 0.8873 cumulative IPC: 0.8859 (Simulation time: 00 hr 02 min 42 sec)
Heartbeat CPU 0 instructions: 30000005 cycles: 29582761 heartbeat IPC: 0.8893 cumulative IPC: 0.8873 (Simulation time: 00 hr 04 min 23 sec)
Simulation finished CPU 0 instructions: 25000002 cycles: 28176657 cumulative IPC: 0.8873 (Simulation time: 00 hr 04 min 23 sec)
Simulation complete CPU 0 instructions: 25000002 cycles: 28176657 cumulative IPC: 0.8873 (Simulation time: 00 hr 04 min 23 sec)

ChampSim completed all CPUs

=== Simulation ===
CPU 0 runs ../../hw2/traces/603.bwaves_s-2931B.champsimtrace.xz

Region of Interest Statistics

CPU 0 cumulative IPC: 0.8873 instructions: 25000002 cycles: 28176657
CPU 0 Branch Prediction Accuracy: 80.62% MPKI: 1.636 Average ROB Occupancy at Mispredict: 300.2
Branch type MPKI
BRANCH_DIRECT_JUMP: 0
BRANCH_INDIRECT: 0
BRANCH_CONDITIONAL: 1.636
BRANCH_DIRECT_CALL: 0
BRANCH_INDIRECT_CALL: 0
BRANCH_RETURN: 0

cpu0->cpu0_STLB TOTAL        ACCESS:      43431 HIT:      38099 MISS:       5332 MSHR_MERGE:          0
cpu0->cpu0_STLB LOAD         ACCESS:      43431 HIT:      38099 MISS:       5332 MSHR_MERGE:          0
cpu0->cpu0_STLB RFO          ACCESS:          0 HIT:          0 MISS:          0 MSHR_MERGE:          0
cpu0->cpu0_STLB PREFETCH     ACCESS:          0 HIT:          0 MISS:          0 MSHR_MERGE:          0
cpu0->cpu0_STLB WRITE        ACCESS:          0 HIT:          0 MISS:          0 MSHR_MERGE:          0
cpu0->cpu0_STLB TRANSLATION  ACCESS:          0 HIT:          0 MISS:          0 MSHR_MERGE:          0
cpu0->cpu0_STLB PREFETCH REQUESTED:          0 ISSUED:          0 USEFUL:          0 USELESS:          0
cpu0->cpu0_STLB AVERAGE MISS LATENCY: 702.6 cycles
cpu0->cpu0_L2C TOTAL        ACCESS:     586843 HIT:     213776 MISS:     373067 MSHR_MERGE:          0
cpu0->cpu0_L2C LOAD         ACCESS:     259343 HIT:      41280 MISS:     218063 MSHR_MERGE:          0
cpu0->cpu0_L2C RFO          ACCESS:     157476 HIT:       8635 MISS:     148841 MSHR_MERGE:          0
cpu0->cpu0_L2C PREFETCH     ACCESS:          0 HIT:          0 MISS:          0 MSHR_MERGE:          0
cpu0->cpu0_L2C WRITE        ACCESS:     159389 HIT:     159380 MISS:          9 MSHR_MERGE:          0
cpu0->cpu0_L2C TRANSLATION  ACCESS:      10635 HIT:       4481 MISS:       6154 MSHR_MERGE:          0
cpu0->cpu0_L2C PREFETCH REQUESTED:          0 ISSUED:          0 USEFUL:          0 USELESS:          0
cpu0->cpu0_L2C AVERAGE MISS LATENCY: 224.8 cycles
cpu0->cpu0_L1I TOTAL        ACCESS:    2834555 HIT:    2834547 MISS:          8 MSHR_MERGE:          1
cpu0->cpu0_L1I LOAD         ACCESS:    2834555 HIT:    2834547 MISS:          8 MSHR_MERGE:          1
cpu0->cpu0_L1I RFO          ACCESS:          0 HIT:          0 MISS:          0 MSHR_MERGE:          0
cpu0->cpu0_L1I PREFETCH     ACCESS:          0 HIT:          0 MISS:          0 MSHR_MERGE:          0
cpu0->cpu0_L1I WRITE        ACCESS:          0 HIT:          0 MISS:          0 MSHR_MERGE:          0
cpu0->cpu0_L1I TRANSLATION  ACCESS:          0 HIT:          0 MISS:          0 MSHR_MERGE:          0
cpu0->cpu0_L1I PREFETCH REQUESTED:          0 ISSUED:          0 USEFUL:          0 USELESS:          0
cpu0->cpu0_L1I AVERAGE MISS LATENCY: 223 cycles
cpu0->cpu0_L1D TOTAL        ACCESS:    8286196 HIT:    7479150 MISS:     807046 MSHR_MERGE:     379456
cpu0->cpu0_L1D LOAD         ACCESS:    3702477 HIT:    3440734 MISS:     261743 MSHR_MERGE:       2406
cpu0->cpu0_L1D RFO          ACCESS:          0 HIT:          0 MISS:          0 MSHR_MERGE:          0
cpu0->cpu0_L1D PREFETCH     ACCESS:          0 HIT:          0 MISS:          0 MSHR_MERGE:          0
cpu0->cpu0_L1D WRITE        ACCESS:    4573038 HIT:    4038370 MISS:     534668 MSHR_MERGE:     377050
cpu0->cpu0_L1D TRANSLATION  ACCESS:      10681 HIT:         46 MISS:      10635 MSHR_MERGE:          0
cpu0->cpu0_L1D PREFETCH REQUESTED:          0 ISSUED:          0 USEFUL:          0 USELESS:          0
cpu0->cpu0_L1D AVERAGE MISS LATENCY: 205.1 cycles
cpu0->cpu0_ITLB TOTAL        ACCESS:    2266585 HIT:    2266585 MISS:          0 MSHR_MERGE:          0
cpu0->cpu0_ITLB LOAD         ACCESS:    2266585 HIT:    2266585 MISS:          0 MSHR_MERGE:          0
cpu0->cpu0_ITLB RFO          ACCESS:          0 HIT:          0 MISS:          0 MSHR_MERGE:          0
cpu0->cpu0_ITLB PREFETCH     ACCESS:          0 HIT:          0 MISS:          0 MSHR_MERGE:          0
cpu0->cpu0_ITLB WRITE        ACCESS:          0 HIT:          0 MISS:          0 MSHR_MERGE:          0
cpu0->cpu0_ITLB TRANSLATION  ACCESS:          0 HIT:          0 MISS:          0 MSHR_MERGE:          0
cpu0->cpu0_ITLB PREFETCH REQUESTED:          0 ISSUED:          0 USEFUL:          0 USELESS:          0
cpu0->cpu0_ITLB AVERAGE MISS LATENCY: - cycles
cpu0->cpu0_DTLB TOTAL        ACCESS:    7591619 HIT:    7542947 MISS:      48672 MSHR_MERGE:       5241
cpu0->cpu0_DTLB LOAD         ACCESS:    7591619 HIT:    7542947 MISS:      48672 MSHR_MERGE:       5241
cpu0->cpu0_DTLB RFO          ACCESS:          0 HIT:          0 MISS:          0 MSHR_MERGE:          0
cpu0->cpu0_DTLB PREFETCH     ACCESS:          0 HIT:          0 MISS:          0 MSHR_MERGE:          0
cpu0->cpu0_DTLB WRITE        ACCESS:          0 HIT:          0 MISS:          0 MSHR_MERGE:          0
cpu0->cpu0_DTLB TRANSLATION  ACCESS:          0 HIT:          0 MISS:          0 MSHR_MERGE:          0
cpu0->cpu0_DTLB PREFETCH REQUESTED:          0 ISSUED:          0 USEFUL:          0 USELESS:          0
cpu0->cpu0_DTLB AVERAGE MISS LATENCY: 91.39 cycles
cpu0->LLC TOTAL        ACCESS:     521976 HIT:     174550 MISS:     347426 MSHR_MERGE:          0
cpu0->LLC LOAD         ACCESS:     218063 HIT:      25647 MISS:     192416 MSHR_MERGE:          0
cpu0->LLC RFO          ACCESS:     148841 HIT:          0 MISS:     148841 MSHR_MERGE:          0
cpu0->LLC PREFETCH     ACCESS:          0 HIT:          0 MISS:          0 MSHR_MERGE:          0
cpu0->LLC WRITE        ACCESS:     148918 HIT:     148902 MISS:         16 MSHR_MERGE:          0
cpu0->LLC TRANSLATION  ACCESS:       6154 HIT:          1 MISS:       6153 MSHR_MERGE:          0
cpu0->LLC PREFETCH REQUESTED:          0 ISSUED:          0 USEFUL:          0 USELESS:          0
cpu0->LLC AVERAGE MISS LATENCY: 224.3 cycles

DRAM Statistics

Channel 0 RQ ROW_BUFFER_HIT:          6
  ROW_BUFFER_MISS:     347402
  AVG DBUS CONGESTED CYCLE: 11.2
Channel 0 WQ ROW_BUFFER_HIT:      52508
  ROW_BUFFER_MISS:      97068
  FULL:          0
Channel 0 REFRESHES ISSUED:       2348
