[VMEM] WARNING: physical memory size is smaller than virtual memory size.

*** ChampSim Multicore Out-of-Order Simulator ***
Warmup Instructions: 5000000
Simulation Instructions: 25000000
Number of CPUs: 1
Page size: 4096

Off-chip DRAM Size: 16 GiB Channels: 1 Width: 64-bit Data Rate: 3205 MT/s
Warmup finished CPU 0 instructions: 5000001 cycles: 2094265 cumulative IPC: 2.387 (Simulation time: 00 hr 00 min 25 sec)
Warmup complete CPU 0 instructions: 5000001 cycles: 2094265 cumulative IPC: 2.387 (Simulation time: 00 hr 00 min 25 sec)
Heartbeat CPU 0 instructions: 10000003 cycles: 23353142 heartbeat IPC: 0.4282 cumulative IPC: 0.2352 (Simulation time: 00 hr 03 min 36 sec)
Heartbeat CPU 0 instructions: 20000003 cycles: 64938970 heartbeat IPC: 0.2405 cumulative IPC: 0.2387 (Simulation time: 00 hr 09 min 33 sec)
Simulation finished CPU 0 instructions: 25000001 cycles: 104144963 cumulative IPC: 0.2401 (Simulation time: 00 hr 13 min 48 sec)
Simulation complete CPU 0 instructions: 25000001 cycles: 104144963 cumulative IPC: 0.2401 (Simulation time: 00 hr 13 min 48 sec)

ChampSim completed all CPUs

=== Simulation ===
CPU 0 runs ../../hw2/traces/605.mcf_s-1536B.champsimtrace.xz

Region of Interest Statistics

CPU 0 cumulative IPC: 0.2401 instructions: 25000001 cycles: 104144963
CPU 0 Branch Prediction Accuracy: 99.98% MPKI: 0.03768 Average ROB Occupancy at Mispredict: 190.8
Branch type MPKI
BRANCH_DIRECT_JUMP: 0
BRANCH_INDIRECT: 0
BRANCH_CONDITIONAL: 0.03768
BRANCH_DIRECT_CALL: 0
BRANCH_INDIRECT_CALL: 0
BRANCH_RETURN: 0

cpu0->cpu0_STLB TOTAL        ACCESS:     691075 HIT:     130073 MISS:     561002 MSHR_MERGE:          0
cpu0->cpu0_STLB LOAD         ACCESS:     691075 HIT:     130073 MISS:     561002 MSHR_MERGE:          0
cpu0->cpu0_STLB RFO          ACCESS:          0 HIT:          0 MISS:          0 MSHR_MERGE:          0
cpu0->cpu0_STLB PREFETCH     ACCESS:          0 HIT:          0 MISS:          0 MSHR_MERGE:          0
cpu0->cpu0_STLB WRITE        ACCESS:          0 HIT:          0 MISS:          0 MSHR_MERGE:          0
cpu0->cpu0_STLB TRANSLATION  ACCESS:          0 HIT:          0 MISS:          0 MSHR_MERGE:          0
cpu0->cpu0_STLB PREFETCH REQUESTED:          0 ISSUED:          0 USEFUL:          0 USELESS:          0
cpu0->cpu0_STLB AVERAGE MISS LATENCY: 84.51 cycles
cpu0->cpu0_L2C TOTAL        ACCESS:    2900025 HIT:    1227524 MISS:    1672501 MSHR_MERGE:          0
cpu0->cpu0_L2C LOAD         ACCESS:    1154498 HIT:     401733 MISS:     752765 MSHR_MERGE:          0
cpu0->cpu0_L2C RFO          ACCESS:      71346 HIT:      17980 MISS:      53366 MSHR_MERGE:          0
cpu0->cpu0_L2C PREFETCH     ACCESS:          0 HIT:          0 MISS:          0 MSHR_MERGE:          0
cpu0->cpu0_L2C WRITE        ACCESS:     556353 HIT:     556342 MISS:         11 MSHR_MERGE:          0
cpu0->cpu0_L2C TRANSLATION  ACCESS:    1117828 HIT:     251469 MISS:     866359 MSHR_MERGE:          0
cpu0->cpu0_L2C PREFETCH REQUESTED:          0 ISSUED:          0 USEFUL:          0 USELESS:          0
cpu0->cpu0_L2C AVERAGE MISS LATENCY: 109.1 cycles
cpu0->cpu0_L1I TOTAL        ACCESS:    5555678 HIT:    5555678 MISS:          0 MSHR_MERGE:          0
cpu0->cpu0_L1I LOAD         ACCESS:    5555678 HIT:    5555678 MISS:          0 MSHR_MERGE:          0
cpu0->cpu0_L1I RFO          ACCESS:          0 HIT:          0 MISS:          0 MSHR_MERGE:          0
cpu0->cpu0_L1I PREFETCH     ACCESS:          0 HIT:          0 MISS:          0 MSHR_MERGE:          0
cpu0->cpu0_L1I WRITE        ACCESS:          0 HIT:          0 MISS:          0 MSHR_MERGE:          0
cpu0->cpu0_L1I TRANSLATION  ACCESS:          0 HIT:          0 MISS:          0 MSHR_MERGE:          0
cpu0->cpu0_L1I PREFETCH REQUESTED:          0 ISSUED:          0 USEFUL:          0 USELESS:          0
cpu0->cpu0_L1I AVERAGE MISS LATENCY: - cycles
cpu0->cpu0_L1D TOTAL        ACCESS:    7302608 HIT:    4116827 MISS:    3185781 MSHR_MERGE:     842097
cpu0->cpu0_L1D LOAD         ACCESS:    4986248 HIT:    3000937 MISS:    1985311 MSHR_MERGE:     830813
cpu0->cpu0_L1D RFO          ACCESS:          0 HIT:          0 MISS:          0 MSHR_MERGE:          0
cpu0->cpu0_L1D PREFETCH     ACCESS:          0 HIT:          0 MISS:          0 MSHR_MERGE:          0
cpu0->cpu0_L1D WRITE        ACCESS:    1108562 HIT:    1037183 MISS:      71379 MSHR_MERGE:         22
cpu0->cpu0_L1D TRANSLATION  ACCESS:    1207798 HIT:      78707 MISS:    1129091 MSHR_MERGE:      11262
cpu0->cpu0_L1D PREFETCH REQUESTED:          0 ISSUED:          0 USEFUL:          0 USELESS:          0
cpu0->cpu0_L1D AVERAGE MISS LATENCY: 86.72 cycles
cpu0->cpu0_ITLB TOTAL        ACCESS:    4978124 HIT:    4978124 MISS:          0 MSHR_MERGE:          0
cpu0->cpu0_ITLB LOAD         ACCESS:    4978124 HIT:    4978124 MISS:          0 MSHR_MERGE:          0
cpu0->cpu0_ITLB RFO          ACCESS:          0 HIT:          0 MISS:          0 MSHR_MERGE:          0
cpu0->cpu0_ITLB PREFETCH     ACCESS:          0 HIT:          0 MISS:          0 MSHR_MERGE:          0
cpu0->cpu0_ITLB WRITE        ACCESS:          0 HIT:          0 MISS:          0 MSHR_MERGE:          0
cpu0->cpu0_ITLB TRANSLATION  ACCESS:          0 HIT:          0 MISS:          0 MSHR_MERGE:          0
cpu0->cpu0_ITLB PREFETCH REQUESTED:          0 ISSUED:          0 USEFUL:          0 USELESS:          0
cpu0->cpu0_ITLB AVERAGE MISS LATENCY: - cycles
cpu0->cpu0_DTLB TOTAL        ACCESS:    6049369 HIT:    4360226 MISS:    1689143 MSHR_MERGE:     998069
cpu0->cpu0_DTLB LOAD         ACCESS:    6049369 HIT:    4360226 MISS:    1689143 MSHR_MERGE:     998069
cpu0->cpu0_DTLB RFO          ACCESS:          0 HIT:          0 MISS:          0 MSHR_MERGE:          0
cpu0->cpu0_DTLB PREFETCH     ACCESS:          0 HIT:          0 MISS:          0 MSHR_MERGE:          0
cpu0->cpu0_DTLB WRITE        ACCESS:          0 HIT:          0 MISS:          0 MSHR_MERGE:          0
cpu0->cpu0_DTLB TRANSLATION  ACCESS:          0 HIT:          0 MISS:          0 MSHR_MERGE:          0
cpu0->cpu0_DTLB PREFETCH REQUESTED:          0 ISSUED:          0 USEFUL:          0 USELESS:          0
cpu0->cpu0_DTLB AVERAGE MISS LATENCY: 74.41 cycles
cpu0->LLC TOTAL        ACCESS:    2226872 HIT:    1541560 MISS:     685312 MSHR_MERGE:          0
cpu0->LLC LOAD         ACCESS:     752765 HIT:     118028 MISS:     634737 MSHR_MERGE:          0
cpu0->LLC RFO          ACCESS:      53366 HIT:      53361 MISS:          5 MSHR_MERGE:          0
cpu0->LLC PREFETCH     ACCESS:          0 HIT:          0 MISS:          0 MSHR_MERGE:          0
cpu0->LLC WRITE        ACCESS:     554382 HIT:     553811 MISS:        571 MSHR_MERGE:          0
cpu0->LLC TRANSLATION  ACCESS:     866359 HIT:     816360 MISS:      49999 MSHR_MERGE:          0
cpu0->LLC PREFETCH REQUESTED:          0 ISSUED:          0 USEFUL:          0 USELESS:          0
cpu0->LLC AVERAGE MISS LATENCY: 228.8 cycles

DRAM Statistics

Channel 0 RQ ROW_BUFFER_HIT:        128
  ROW_BUFFER_MISS:     684613
  AVG DBUS CONGESTED CYCLE: 5.834
Channel 0 WQ ROW_BUFFER_HIT:     182062
  ROW_BUFFER_MISS:     372024
  FULL:          0
Channel 0 REFRESHES ISSUED:       8679
