[VMEM] WARNING: physical memory size is smaller than virtual memory size.

*** ChampSim Multicore Out-of-Order Simulator ***
Warmup Instructions: 5000000
Simulation Instructions: 25000000
Number of CPUs: 1
Page size: 4096

Off-chip DRAM Size: 16 GiB Channels: 1 Width: 64-bit Data Rate: 3205 MT/s
Warmup finished CPU 0 instructions: 5000000 cycles: 1497107 cumulative IPC: 3.34 (Simulation time: 00 hr 00 min 24 sec)
Warmup complete CPU 0 instructions: 5000000 cycles: 1497107 cumulative IPC: 3.34 (Simulation time: 00 hr 00 min 24 sec)
Heartbeat CPU 0 instructions: 10000002 cycles: 4421817 heartbeat IPC: 2.262 cumulative IPC: 1.71 (Simulation time: 00 hr 00 min 56 sec)
Heartbeat CPU 0 instructions: 20000002 cycles: 10541417 heartbeat IPC: 1.634 cumulative IPC: 1.659 (Simulation time: 00 hr 02 min 08 sec)
Simulation finished CPU 0 instructions: 25000001 cycles: 15172550 cumulative IPC: 1.648 (Simulation time: 00 hr 03 min 26 sec)
Simulation complete CPU 0 instructions: 25000001 cycles: 15172550 cumulative IPC: 1.648 (Simulation time: 00 hr 03 min 26 sec)

ChampSim completed all CPUs

=== Simulation ===
CPU 0 runs ../../hw2/traces/607.cactuBSSN_s-2421B.champsimtrace.xz

Region of Interest Statistics

CPU 0 cumulative IPC: 1.648 instructions: 25000001 cycles: 15172550
CPU 0 Branch Prediction Accuracy: 91.63% MPKI: 0.7521 Average ROB Occupancy at Mispredict: 330.5
Branch type MPKI
BRANCH_DIRECT_JUMP: 0.00132
BRANCH_INDIRECT: 8e-05
BRANCH_CONDITIONAL: 0.3843
BRANCH_DIRECT_CALL: 0.00156
BRANCH_INDIRECT_CALL: 0
BRANCH_RETURN: 0.3649

cpu0->cpu0_STLB TOTAL        ACCESS:     962207 HIT:     961180 MISS:       1027 MSHR_MERGE:          0
cpu0->cpu0_STLB LOAD         ACCESS:     962207 HIT:     961180 MISS:       1027 MSHR_MERGE:          0
cpu0->cpu0_STLB RFO          ACCESS:          0 HIT:          0 MISS:          0 MSHR_MERGE:          0
cpu0->cpu0_STLB PREFETCH     ACCESS:          0 HIT:          0 MISS:          0 MSHR_MERGE:          0
cpu0->cpu0_STLB WRITE        ACCESS:          0 HIT:          0 MISS:          0 MSHR_MERGE:          0
cpu0->cpu0_STLB TRANSLATION  ACCESS:          0 HIT:          0 MISS:          0 MSHR_MERGE:          0
cpu0->cpu0_STLB PREFETCH REQUESTED:          0 ISSUED:          0 USEFUL:          0 USELESS:          0
cpu0->cpu0_STLB AVERAGE MISS LATENCY: 817.9 cycles
cpu0->cpu0_L2C TOTAL        ACCESS:    2661153 HIT:    2522254 MISS:     138899 MSHR_MERGE:          0
cpu0->cpu0_L2C LOAD         ACCESS:    2335782 HIT:    2214739 MISS:     121043 MSHR_MERGE:          0
cpu0->cpu0_L2C RFO          ACCESS:     153303 HIT:     137989 MISS:      15314 MSHR_MERGE:          0
cpu0->cpu0_L2C PREFETCH     ACCESS:          0 HIT:          0 MISS:          0 MSHR_MERGE:          0
cpu0->cpu0_L2C WRITE        ACCESS:     169514 HIT:     169471 MISS:         43 MSHR_MERGE:          0
cpu0->cpu0_L2C TRANSLATION  ACCESS:       2554 HIT:         55 MISS:       2499 MSHR_MERGE:          0
cpu0->cpu0_L2C PREFETCH REQUESTED:          0 ISSUED:          0 USEFUL:          0 USELESS:          0
cpu0->cpu0_L2C AVERAGE MISS LATENCY: 120.4 cycles
cpu0->cpu0_L1I TOTAL        ACCESS:    5509342 HIT:    4225092 MISS:    1284250 MSHR_MERGE:     634143
cpu0->cpu0_L1I LOAD         ACCESS:    5509342 HIT:    4225092 MISS:    1284250 MSHR_MERGE:     634143
cpu0->cpu0_L1I RFO          ACCESS:          0 HIT:          0 MISS:          0 MSHR_MERGE:          0
cpu0->cpu0_L1I PREFETCH     ACCESS:          0 HIT:          0 MISS:          0 MSHR_MERGE:          0
cpu0->cpu0_L1I WRITE        ACCESS:          0 HIT:          0 MISS:          0 MSHR_MERGE:          0
cpu0->cpu0_L1I TRANSLATION  ACCESS:          0 HIT:          0 MISS:          0 MSHR_MERGE:          0
cpu0->cpu0_L1I PREFETCH REQUESTED:          0 ISSUED:          0 USEFUL:          0 USELESS:          0
cpu0->cpu0_L1I AVERAGE MISS LATENCY: 7.217 cycles
cpu0->cpu0_L1D TOTAL        ACCESS:    9622582 HIT:    7647038 MISS:    1975544 MSHR_MERGE:     133971
cpu0->cpu0_L1D LOAD         ACCESS:    7611347 HIT:    5809303 MISS:    1802044 MSHR_MERGE:     116335
cpu0->cpu0_L1D RFO          ACCESS:          0 HIT:          0 MISS:          0 MSHR_MERGE:          0
cpu0->cpu0_L1D PREFETCH     ACCESS:          0 HIT:          0 MISS:          0 MSHR_MERGE:          0
cpu0->cpu0_L1D WRITE        ACCESS:    2008663 HIT:    1837720 MISS:     170943 MSHR_MERGE:      17633
cpu0->cpu0_L1D TRANSLATION  ACCESS:       2572 HIT:         15 MISS:       2557 MSHR_MERGE:          3
cpu0->cpu0_L1D PREFETCH REQUESTED:          0 ISSUED:          0 USEFUL:          0 USELESS:          0
cpu0->cpu0_L1D AVERAGE MISS LATENCY: 18.13 cycles
cpu0->cpu0_ITLB TOTAL        ACCESS:    4391380 HIT:    4391365 MISS:         15 MSHR_MERGE:          5
cpu0->cpu0_ITLB LOAD         ACCESS:    4391380 HIT:    4391365 MISS:         15 MSHR_MERGE:          5
cpu0->cpu0_ITLB RFO          ACCESS:          0 HIT:          0 MISS:          0 MSHR_MERGE:          0
cpu0->cpu0_ITLB PREFETCH     ACCESS:          0 HIT:          0 MISS:          0 MSHR_MERGE:          0
cpu0->cpu0_ITLB WRITE        ACCESS:          0 HIT:          0 MISS:          0 MSHR_MERGE:          0
cpu0->cpu0_ITLB TRANSLATION  ACCESS:          0 HIT:          0 MISS:          0 MSHR_MERGE:          0
cpu0->cpu0_ITLB PREFETCH REQUESTED:          0 ISSUED:          0 USEFUL:          0 USELESS:          0
cpu0->cpu0_ITLB AVERAGE MISS LATENCY: 806.6 cycles
cpu0->cpu0_DTLB TOTAL        ACCESS:    9094809 HIT:    8026305 MISS:    1068504 MSHR_MERGE:     106307
cpu0->cpu0_DTLB LOAD         ACCESS:    9094809 HIT:    8026305 MISS:    1068504 MSHR_MERGE:     106307
cpu0->cpu0_DTLB RFO          ACCESS:          0 HIT:          0 MISS:          0 MSHR_MERGE:          0
cpu0->cpu0_DTLB PREFETCH     ACCESS:          0 HIT:          0 MISS:          0 MSHR_MERGE:          0
cpu0->cpu0_DTLB WRITE        ACCESS:          0 HIT:          0 MISS:          0 MSHR_MERGE:          0
cpu0->cpu0_DTLB TRANSLATION  ACCESS:          0 HIT:          0 MISS:          0 MSHR_MERGE:          0
cpu0->cpu0_DTLB PREFETCH REQUESTED:          0 ISSUED:          0 USEFUL:          0 USELESS:          0
cpu0->cpu0_DTLB AVERAGE MISS LATENCY: 5.91 cycles
cpu0->LLC TOTAL        ACCESS:     154218 HIT:      86703 MISS:      67515 MSHR_MERGE:          0
cpu0->LLC LOAD         ACCESS:     121043 HIT:      69951 MISS:      51092 MSHR_MERGE:          0
cpu0->LLC RFO          ACCESS:      15292 HIT:        552 MISS:      14740 MSHR_MERGE:          0
cpu0->LLC PREFETCH     ACCESS:          0 HIT:          0 MISS:          0 MSHR_MERGE:          0
cpu0->LLC WRITE        ACCESS:      15384 HIT:      15348 MISS:         36 MSHR_MERGE:          0
cpu0->LLC TRANSLATION  ACCESS:       2499 HIT:        852 MISS:       1647 MSHR_MERGE:          0
cpu0->LLC PREFETCH REQUESTED:          0 ISSUED:          0 USEFUL:          0 USELESS:          0
cpu0->LLC AVERAGE MISS LATENCY: 215.9 cycles

DRAM Statistics

Channel 0 RQ ROW_BUFFER_HIT:         58
  ROW_BUFFER_MISS:      67421
  AVG DBUS CONGESTED CYCLE: 10.46
Channel 0 WQ ROW_BUFFER_HIT:        972
  ROW_BUFFER_MISS:      10647
  FULL:          0
Channel 0 REFRESHES ISSUED:       1265
