[VMEM] WARNING: physical memory size is smaller than virtual memory size.

*** ChampSim Multicore Out-of-Order Simulator ***
Warmup Instructions: 5000000
Simulation Instructions: 25000000
Number of CPUs: 1
Page size: 4096

Off-chip DRAM Size: 16 GiB Channels: 1 Width: 64-bit Data Rate: 3205 MT/s
Warmup finished CPU 0 instructions: 5000001 cycles: 1776618 cumulative IPC: 2.814 (Simulation time: 00 hr 00 min 22 sec)
Warmup complete CPU 0 instructions: 5000001 cycles: 1776618 cumulative IPC: 2.814 (Simulation time: 00 hr 00 min 22 sec)
Heartbeat CPU 0 instructions: 10000001 cycles: 12694338 heartbeat IPC: 0.7878 cumulative IPC: 0.458 (Simulation time: 00 hr 02 min 10 sec)
Heartbeat CPU 0 instructions: 20000004 cycles: 34037591 heartbeat IPC: 0.4685 cumulative IPC: 0.465 (Simulation time: 00 hr 05 min 56 sec)
Simulation finished CPU 0 instructions: 25000002 cycles: 53238990 cumulative IPC: 0.4696 (Simulation time: 00 hr 09 min 17 sec)
Simulation complete CPU 0 instructions: 25000002 cycles: 53238990 cumulative IPC: 0.4696 (Simulation time: 00 hr 09 min 17 sec)

ChampSim completed all CPUs

=== Simulation ===
CPU 0 runs ../../hw2/traces/619.lbm_s-2676B.champsimtrace.xz

Region of Interest Statistics

CPU 0 cumulative IPC: 0.4696 instructions: 25000002 cycles: 53238990
CPU 0 Branch Prediction Accuracy: 95.63% MPKI: 0.7376 Average ROB Occupancy at Mispredict: 213.2
Branch type MPKI
BRANCH_DIRECT_JUMP: 0
BRANCH_INDIRECT: 0
BRANCH_CONDITIONAL: 0.7376
BRANCH_DIRECT_CALL: 0
BRANCH_INDIRECT_CALL: 0
BRANCH_RETURN: 0

cpu0->cpu0_STLB TOTAL        ACCESS:      31491 HIT:      14402 MISS:      17089 MSHR_MERGE:          0
cpu0->cpu0_STLB LOAD         ACCESS:      31491 HIT:      14402 MISS:      17089 MSHR_MERGE:          0
cpu0->cpu0_STLB RFO          ACCESS:          0 HIT:          0 MISS:          0 MSHR_MERGE:          0
cpu0->cpu0_STLB PREFETCH     ACCESS:          0 HIT:          0 MISS:          0 MSHR_MERGE:          0
cpu0->cpu0_STLB WRITE        ACCESS:          0 HIT:          0 MISS:          0 MSHR_MERGE:          0
cpu0->cpu0_STLB TRANSLATION  ACCESS:          0 HIT:          0 MISS:          0 MSHR_MERGE:          0
cpu0->cpu0_STLB PREFETCH REQUESTED:          0 ISSUED:          0 USEFUL:          0 USELESS:          0
cpu0->cpu0_STLB AVERAGE MISS LATENCY: 949.1 cycles
cpu0->cpu0_L2C TOTAL        ACCESS:    3375761 HIT:    2223144 MISS:    1152617 MSHR_MERGE:          0
cpu0->cpu0_L2C LOAD         ACCESS:     273389 HIT:         18 MISS:     273371 MSHR_MERGE:          0
cpu0->cpu0_L2C RFO          ACCESS:    1541547 HIT:     681622 MISS:     859925 MSHR_MERGE:          0
cpu0->cpu0_L2C PREFETCH     ACCESS:          0 HIT:          0 MISS:          0 MSHR_MERGE:          0
cpu0->cpu0_L2C WRITE        ACCESS:    1541581 HIT:    1541504 MISS:         77 MSHR_MERGE:          0
cpu0->cpu0_L2C TRANSLATION  ACCESS:      19244 HIT:          0 MISS:      19244 MSHR_MERGE:          0
cpu0->cpu0_L2C PREFETCH REQUESTED:          0 ISSUED:          0 USEFUL:          0 USELESS:          0
cpu0->cpu0_L2C AVERAGE MISS LATENCY: 477.2 cycles
cpu0->cpu0_L1I TOTAL        ACCESS:    3963054 HIT:    3963054 MISS:          0 MSHR_MERGE:          0
cpu0->cpu0_L1I LOAD         ACCESS:    3963054 HIT:    3963054 MISS:          0 MSHR_MERGE:          0
cpu0->cpu0_L1I RFO          ACCESS:          0 HIT:          0 MISS:          0 MSHR_MERGE:          0
cpu0->cpu0_L1I PREFETCH     ACCESS:          0 HIT:          0 MISS:          0 MSHR_MERGE:          0
cpu0->cpu0_L1I WRITE        ACCESS:          0 HIT:          0 MISS:          0 MSHR_MERGE:          0
cpu0->cpu0_L1I TRANSLATION  ACCESS:          0 HIT:          0 MISS:          0 MSHR_MERGE:          0
cpu0->cpu0_L1I PREFETCH REQUESTED:          0 ISSUED:          0 USEFUL:          0 USELESS:          0
cpu0->cpu0_L1I AVERAGE MISS LATENCY: - cycles
cpu0->cpu0_L1D TOTAL        ACCESS:    6052174 HIT:    3795925 MISS:    2256249 MSHR_MERGE:     422038
cpu0->cpu0_L1D LOAD         ACCESS:    1561709 HIT:     938648 MISS:     623061 MSHR_MERGE:     349672
cpu0->cpu0_L1D RFO          ACCESS:          0 HIT:          0 MISS:          0 MSHR_MERGE:          0
cpu0->cpu0_L1D PREFETCH     ACCESS:          0 HIT:          0 MISS:          0 MSHR_MERGE:          0
cpu0->cpu0_L1D WRITE        ACCESS:    4456269 HIT:    2842325 MISS:    1613944 MSHR_MERGE:      72366
cpu0->cpu0_L1D TRANSLATION  ACCESS:      34196 HIT:      14952 MISS:      19244 MSHR_MERGE:          0
cpu0->cpu0_L1D PREFETCH REQUESTED:          0 ISSUED:          0 USEFUL:          0 USELESS:          0
cpu0->cpu0_L1D AVERAGE MISS LATENCY: 309.4 cycles
cpu0->cpu0_ITLB TOTAL        ACCESS:    2943601 HIT:    2943601 MISS:          0 MSHR_MERGE:          0
cpu0->cpu0_ITLB LOAD         ACCESS:    2943601 HIT:    2943601 MISS:          0 MSHR_MERGE:          0
cpu0->cpu0_ITLB RFO          ACCESS:          0 HIT:          0 MISS:          0 MSHR_MERGE:          0
cpu0->cpu0_ITLB PREFETCH     ACCESS:          0 HIT:          0 MISS:          0 MSHR_MERGE:          0
cpu0->cpu0_ITLB WRITE        ACCESS:          0 HIT:          0 MISS:          0 MSHR_MERGE:          0
cpu0->cpu0_ITLB TRANSLATION  ACCESS:          0 HIT:          0 MISS:          0 MSHR_MERGE:          0
cpu0->cpu0_ITLB PREFETCH REQUESTED:          0 ISSUED:          0 USEFUL:          0 USELESS:          0
cpu0->cpu0_ITLB AVERAGE MISS LATENCY: - cycles
cpu0->cpu0_DTLB TOTAL        ACCESS:    5668248 HIT:    5573290 MISS:      94958 MSHR_MERGE:      63467
cpu0->cpu0_DTLB LOAD         ACCESS:    5668248 HIT:    5573290 MISS:      94958 MSHR_MERGE:      63467
cpu0->cpu0_DTLB RFO          ACCESS:          0 HIT:          0 MISS:          0 MSHR_MERGE:          0
cpu0->cpu0_DTLB PREFETCH     ACCESS:          0 HIT:          0 MISS:          0 MSHR_MERGE:          0
cpu0->cpu0_DTLB WRITE        ACCESS:          0 HIT:          0 MISS:          0 MSHR_MERGE:          0
cpu0->cpu0_DTLB TRANSLATION  ACCESS:          0 HIT:          0 MISS:          0 MSHR_MERGE:          0
cpu0->cpu0_DTLB PREFETCH REQUESTED:          0 ISSUED:          0 USEFUL:          0 USELESS:          0
cpu0->cpu0_DTLB AVERAGE MISS LATENCY: 520.6 cycles
cpu0->LLC TOTAL        ACCESS:    2012437 HIT:     899748 MISS:    1112689 MSHR_MERGE:          0
cpu0->LLC LOAD         ACCESS:     273371 HIT:          7 MISS:     273364 MSHR_MERGE:          0
cpu0->LLC RFO          ACCESS:     859922 HIT:      39907 MISS:     820015 MSHR_MERGE:          0
cpu0->LLC PREFETCH     ACCESS:          0 HIT:          0 MISS:          0 MSHR_MERGE:          0
cpu0->LLC WRITE        ACCESS:     859900 HIT:     859834 MISS:         66 MSHR_MERGE:          0
cpu0->LLC TRANSLATION  ACCESS:      19244 HIT:          0 MISS:      19244 MSHR_MERGE:          0
cpu0->LLC PREFETCH REQUESTED:          0 ISSUED:          0 USEFUL:          0 USELESS:          0
cpu0->LLC AVERAGE MISS LATENCY: 477.6 cycles

DRAM Statistics

Channel 0 RQ ROW_BUFFER_HIT:      57252
  ROW_BUFFER_MISS:    1055371
  AVG DBUS CONGESTED CYCLE: 7.196
Channel 0 WQ ROW_BUFFER_HIT:     131562
  ROW_BUFFER_MISS:     688305
  FULL:          0
Channel 0 REFRESHES ISSUED:       4436
