[VMEM] WARNING: physical memory size is smaller than virtual memory size.

*** ChampSim Multicore Out-of-Order Simulator ***
Warmup Instructions: 5000000
Simulation Instructions: 25000000
Number of CPUs: 1
Page size: 4096

Off-chip DRAM Size: 16 GiB Channels: 1 Width: 64-bit Data Rate: 3205 MT/s
Warmup finished CPU 0 instructions: 5000003 cycles: 3494543 cumulative IPC: 1.431 (Simulation time: 00 hr 00 min 38 sec)
Warmup complete CPU 0 instructions: 5000003 cycles: 3494543 cumulative IPC: 1.431 (Simulation time: 00 hr 00 min 38 sec)
Heartbeat CPU 0 instructions: 10000004 cycles: 21875231 heartbeat IPC: 0.4571 cumulative IPC: 0.272 (Simulation time: 00 hr 02 min 18 sec)
Heartbeat CPU 0 instructions: 20000007 cycles: 59433994 heartbeat IPC: 0.2662 cumulative IPC: 0.2681 (Simulation time: 00 hr 05 min 56 sec)
Simulation finished CPU 0 instructions: 25000001 cycles: 91175090 cumulative IPC: 0.2742 (Simulation time: 00 hr 09 min 01 sec)
Simulation complete CPU 0 instructions: 25000001 cycles: 91175090 cumulative IPC: 0.2742 (Simulation time: 00 hr 09 min 01 sec)

ChampSim completed all CPUs

=== Simulation ===
CPU 0 runs ../../hw2/traces/620.omnetpp_s-141B.champsimtrace.xz

Region of Interest Statistics

CPU 0 cumulative IPC: 0.2742 instructions: 25000001 cycles: 91175090
CPU 0 Branch Prediction Accuracy: 92.89% MPKI: 14.98 Average ROB Occupancy at Mispredict: 42.82
Branch type MPKI
BRANCH_DIRECT_JUMP: 0.8414
BRANCH_INDIRECT: 0.3648
BRANCH_CONDITIONAL: 12.48
BRANCH_DIRECT_CALL: 0.00052
BRANCH_INDIRECT_CALL: 0.8609
BRANCH_RETURN: 0.4358

cpu0->cpu0_STLB TOTAL        ACCESS:     562924 HIT:     442446 MISS:     120478 MSHR_MERGE:          0
cpu0->cpu0_STLB LOAD         ACCESS:     562924 HIT:     442446 MISS:     120478 MSHR_MERGE:          0
cpu0->cpu0_STLB RFO          ACCESS:          0 HIT:          0 MISS:          0 MSHR_MERGE:          0
cpu0->cpu0_STLB PREFETCH     ACCESS:          0 HIT:          0 MISS:          0 MSHR_MERGE:          0
cpu0->cpu0_STLB WRITE        ACCESS:          0 HIT:          0 MISS:          0 MSHR_MERGE:          0
cpu0->cpu0_STLB TRANSLATION  ACCESS:          0 HIT:          0 MISS:          0 MSHR_MERGE:          0
cpu0->cpu0_STLB PREFETCH REQUESTED:          0 ISSUED:          0 USEFUL:          0 USELESS:          0
cpu0->cpu0_STLB AVERAGE MISS LATENCY: 362.3 cycles
cpu0->cpu0_L2C TOTAL        ACCESS:    1017938 HIT:     447419 MISS:     570519 MSHR_MERGE:          0
cpu0->cpu0_L2C LOAD         ACCESS:     451645 HIT:     131518 MISS:     320127 MSHR_MERGE:          0
cpu0->cpu0_L2C RFO          ACCESS:      58142 HIT:      11872 MISS:      46270 MSHR_MERGE:          0
cpu0->cpu0_L2C PREFETCH     ACCESS:          0 HIT:          0 MISS:          0 MSHR_MERGE:          0
cpu0->cpu0_L2C WRITE        ACCESS:     240244 HIT:     239636 MISS:        608 MSHR_MERGE:          0
cpu0->cpu0_L2C TRANSLATION  ACCESS:     267907 HIT:      64393 MISS:     203514 MSHR_MERGE:          0
cpu0->cpu0_L2C PREFETCH REQUESTED:          0 ISSUED:          0 USEFUL:          0 USELESS:          0
cpu0->cpu0_L2C AVERAGE MISS LATENCY: 155.3 cycles
cpu0->cpu0_L1I TOTAL        ACCESS:    3342821 HIT:    3324578 MISS:      18243 MSHR_MERGE:       4382
cpu0->cpu0_L1I LOAD         ACCESS:    3342821 HIT:    3324578 MISS:      18243 MSHR_MERGE:       4382
cpu0->cpu0_L1I RFO          ACCESS:          0 HIT:          0 MISS:          0 MSHR_MERGE:          0
cpu0->cpu0_L1I PREFETCH     ACCESS:          0 HIT:          0 MISS:          0 MSHR_MERGE:          0
cpu0->cpu0_L1I WRITE        ACCESS:          0 HIT:          0 MISS:          0 MSHR_MERGE:          0
cpu0->cpu0_L1I TRANSLATION  ACCESS:          0 HIT:          0 MISS:          0 MSHR_MERGE:          0
cpu0->cpu0_L1I PREFETCH REQUESTED:          0 ISSUED:          0 USEFUL:          0 USELESS:          0
cpu0->cpu0_L1I AVERAGE MISS LATENCY: 19.37 cycles
cpu0->cpu0_L1D TOTAL        ACCESS:   10259811 HIT:    9244144 MISS:    1015667 MSHR_MERGE:     251834
cpu0->cpu0_L1D LOAD         ACCESS:    5442071 HIT:    4879106 MISS:     562965 MSHR_MERGE:     125181
cpu0->cpu0_L1D RFO          ACCESS:          0 HIT:          0 MISS:          0 MSHR_MERGE:          0
cpu0->cpu0_L1D PREFETCH     ACCESS:          0 HIT:          0 MISS:          0 MSHR_MERGE:          0
cpu0->cpu0_L1D WRITE        ACCESS:    4527567 HIT:    4343480 MISS:     184087 MSHR_MERGE:     125945
cpu0->cpu0_L1D TRANSLATION  ACCESS:     290173 HIT:      21558 MISS:     268615 MSHR_MERGE:        708
cpu0->cpu0_L1D PREFETCH REQUESTED:          0 ISSUED:          0 USEFUL:          0 USELESS:          0
cpu0->cpu0_L1D AVERAGE MISS LATENCY: 124.6 cycles
cpu0->cpu0_ITLB TOTAL        ACCESS:    2949028 HIT:    2871430 MISS:      77598 MSHR_MERGE:      37453
cpu0->cpu0_ITLB LOAD         ACCESS:    2949028 HIT:    2871430 MISS:      77598 MSHR_MERGE:      37453
cpu0->cpu0_ITLB RFO          ACCESS:          0 HIT:          0 MISS:          0 MSHR_MERGE:          0
cpu0->cpu0_ITLB PREFETCH     ACCESS:          0 HIT:          0 MISS:          0 MSHR_MERGE:          0
cpu0->cpu0_ITLB WRITE        ACCESS:          0 HIT:          0 MISS:          0 MSHR_MERGE:          0
cpu0->cpu0_ITLB TRANSLATION  ACCESS:          0 HIT:          0 MISS:          0 MSHR_MERGE:          0
cpu0->cpu0_ITLB PREFETCH REQUESTED:          0 ISSUED:          0 USEFUL:          0 USELESS:          0
cpu0->cpu0_ITLB AVERAGE MISS LATENCY: 7.456 cycles
cpu0->cpu0_DTLB TOTAL        ACCESS:    9475781 HIT:    8865912 MISS:     609869 MSHR_MERGE:      87090
cpu0->cpu0_DTLB LOAD         ACCESS:    9475781 HIT:    8865912 MISS:     609869 MSHR_MERGE:      87090
cpu0->cpu0_DTLB RFO          ACCESS:          0 HIT:          0 MISS:          0 MSHR_MERGE:          0
cpu0->cpu0_DTLB PREFETCH     ACCESS:          0 HIT:          0 MISS:          0 MSHR_MERGE:          0
cpu0->cpu0_DTLB WRITE        ACCESS:          0 HIT:          0 MISS:          0 MSHR_MERGE:          0
cpu0->cpu0_DTLB TRANSLATION  ACCESS:          0 HIT:          0 MISS:          0 MSHR_MERGE:          0
cpu0->cpu0_DTLB PREFETCH REQUESTED:          0 ISSUED:          0 USEFUL:          0 USELESS:          0
cpu0->cpu0_DTLB AVERAGE MISS LATENCY: 88.54 cycles
cpu0->LLC TOTAL        ACCESS:     751507 HIT:     331229 MISS:     420278 MSHR_MERGE:          0
cpu0->LLC LOAD         ACCESS:     320127 HIT:      71927 MISS:     248200 MSHR_MERGE:          0
cpu0->LLC RFO          ACCESS:      46270 HIT:      16797 MISS:      29473 MSHR_MERGE:          0
cpu0->LLC PREFETCH     ACCESS:          0 HIT:          0 MISS:          0 MSHR_MERGE:          0
cpu0->LLC WRITE        ACCESS:     181596 HIT:     180787 MISS:        809 MSHR_MERGE:          0
cpu0->LLC TRANSLATION  ACCESS:     203514 HIT:      61718 MISS:     141796 MSHR_MERGE:          0
cpu0->LLC PREFETCH REQUESTED:          0 ISSUED:          0 USEFUL:          0 USELESS:          0
cpu0->LLC AVERAGE MISS LATENCY: 189.5 cycles

DRAM Statistics

Channel 0 RQ ROW_BUFFER_HIT:       1425
  ROW_BUFFER_MISS:     418038
  AVG DBUS CONGESTED CYCLE: 19.85
Channel 0 WQ ROW_BUFFER_HIT:      44343
  ROW_BUFFER_MISS:      88339
  FULL:          0
Channel 0 REFRESHES ISSUED:       7598
