[VMEM] WARNING: physical memory size is smaller than virtual memory size.

*** ChampSim Multicore Out-of-Order Simulator ***
Warmup Instructions: 5000000
Simulation Instructions: 25000000
Number of CPUs: 1
Page size: 4096

Off-chip DRAM Size: 16 GiB Channels: 1 Width: 64-bit Data Rate: 3205 MT/s
Warmup finished CPU 0 instructions: 5000000 cycles: 1482026 cumulative IPC: 3.374 (Simulation time: 00 hr 00 min 21 sec)
Warmup complete CPU 0 instructions: 5000000 cycles: 1482026 cumulative IPC: 3.374 (Simulation time: 00 hr 00 min 21 sec)
Heartbeat CPU 0 instructions: 10000000 cycles: 6348121 heartbeat IPC: 1.575 cumulative IPC: 1.028 (Simulation time: 00 hr 01 min 00 sec)
Heartbeat CPU 0 instructions: 20000000 cycles: 13587982 heartbeat IPC: 1.381 cumulative IPC: 1.239 (Simulation time: 00 hr 02 min 07 sec)
Heartbeat CPU 0 instructions: 30000002 cycles: 23519237 heartbeat IPC: 1.007 cumulative IPC: 1.134 (Simulation time: 00 hr 03 min 30 sec)
Simulation finished CPU 0 instructions: 25000002 cycles: 22037211 cumulative IPC: 1.134 (Simulation time: 00 hr 03 min 30 sec)
Simulation complete CPU 0 instructions: 25000002 cycles: 22037211 cumulative IPC: 1.134 (Simulation time: 00 hr 03 min 30 sec)

ChampSim completed all CPUs

=== Simulation ===
CPU 0 runs ../../hw2/traces/627.cam4_s-490B.champsimtrace.xz

Region of Interest Statistics

CPU 0 cumulative IPC: 1.134 instructions: 25000002 cycles: 22037211
CPU 0 Branch Prediction Accuracy: 88.99% MPKI: 10.5 Average ROB Occupancy at Mispredict: 30.71
Branch type MPKI
BRANCH_DIRECT_JUMP: 0.00488
BRANCH_INDIRECT: 0
BRANCH_CONDITIONAL: 10.5
BRANCH_DIRECT_CALL: 0.00032
BRANCH_INDIRECT_CALL: 0
BRANCH_RETURN: 0.00044

cpu0->cpu0_STLB TOTAL        ACCESS:       8024 HIT:       7373 MISS:        651 MSHR_MERGE:          0
cpu0->cpu0_STLB LOAD         ACCESS:       8024 HIT:       7373 MISS:        651 MSHR_MERGE:          0
cpu0->cpu0_STLB RFO          ACCESS:          0 HIT:          0 MISS:          0 MSHR_MERGE:          0
cpu0->cpu0_STLB PREFETCH     ACCESS:          0 HIT:          0 MISS:          0 MSHR_MERGE:          0
cpu0->cpu0_STLB WRITE        ACCESS:          0 HIT:          0 MISS:          0 MSHR_MERGE:          0
cpu0->cpu0_STLB TRANSLATION  ACCESS:          0 HIT:          0 MISS:          0 MSHR_MERGE:          0
cpu0->cpu0_STLB PREFETCH REQUESTED:          0 ISSUED:          0 USEFUL:          0 USELESS:          0
cpu0->cpu0_STLB AVERAGE MISS LATENCY: 712.2 cycles
cpu0->cpu0_L2C TOTAL        ACCESS:     667949 HIT:     350635 MISS:     317314 MSHR_MERGE:          0
cpu0->cpu0_L2C LOAD         ACCESS:     330482 HIT:     145247 MISS:     185235 MSHR_MERGE:          0
cpu0->cpu0_L2C RFO          ACCESS:     136464 HIT:       5622 MISS:     130842 MSHR_MERGE:          0
cpu0->cpu0_L2C PREFETCH     ACCESS:          0 HIT:          0 MISS:          0 MSHR_MERGE:          0
cpu0->cpu0_L2C WRITE        ACCESS:     200182 HIT:     199762 MISS:        420 MSHR_MERGE:          0
cpu0->cpu0_L2C TRANSLATION  ACCESS:        821 HIT:          4 MISS:        817 MSHR_MERGE:          0
cpu0->cpu0_L2C PREFETCH REQUESTED:          0 ISSUED:          0 USEFUL:          0 USELESS:          0
cpu0->cpu0_L2C AVERAGE MISS LATENCY: 124.7 cycles
cpu0->cpu0_L1I TOTAL        ACCESS:    1731371 HIT:    1730321 MISS:       1050 MSHR_MERGE:        513
cpu0->cpu0_L1I LOAD         ACCESS:    1731371 HIT:    1730321 MISS:       1050 MSHR_MERGE:        513
cpu0->cpu0_L1I RFO          ACCESS:          0 HIT:          0 MISS:          0 MSHR_MERGE:          0
cpu0->cpu0_L1I PREFETCH     ACCESS:          0 HIT:          0 MISS:          0 MSHR_MERGE:          0
cpu0->cpu0_L1I WRITE        ACCESS:          0 HIT:          0 MISS:          0 MSHR_MERGE:          0
cpu0->cpu0_L1I TRANSLATION  ACCESS:          0 HIT:          0 MISS:          0 MSHR_MERGE:          0
cpu0->cpu0_L1I PREFETCH REQUESTED:          0 ISSUED:          0 USEFUL:          0 USELESS:          0
cpu0->cpu0_L1I AVERAGE MISS LATENCY: 248.9 cycles
cpu0->cpu0_L1D TOTAL        ACCESS:    4979480 HIT:    3595558 MISS:    1383922 MSHR_MERGE:     916691
cpu0->cpu0_L1D LOAD         ACCESS:    3321455 HIT:    2611021 MISS:     710434 MSHR_MERGE:     380488
cpu0->cpu0_L1D RFO          ACCESS:          0 HIT:          0 MISS:          0 MSHR_MERGE:          0
cpu0->cpu0_L1D PREFETCH     ACCESS:          0 HIT:          0 MISS:          0 MSHR_MERGE:          0
cpu0->cpu0_L1D WRITE        ACCESS:    1656711 HIT:     984046 MISS:     672665 MSHR_MERGE:     536201
cpu0->cpu0_L1D TRANSLATION  ACCESS:       1314 HIT:        491 MISS:        823 MSHR_MERGE:          2
cpu0->cpu0_L1D PREFETCH REQUESTED:          0 ISSUED:          0 USEFUL:          0 USELESS:          0
cpu0->cpu0_L1D AVERAGE MISS LATENCY: 93.18 cycles
cpu0->cpu0_ITLB TOTAL        ACCESS:    1555973 HIT:    1555951 MISS:         22 MSHR_MERGE:         16
cpu0->cpu0_ITLB LOAD         ACCESS:    1555973 HIT:    1555951 MISS:         22 MSHR_MERGE:         16
cpu0->cpu0_ITLB RFO          ACCESS:          0 HIT:          0 MISS:          0 MSHR_MERGE:          0
cpu0->cpu0_ITLB PREFETCH     ACCESS:          0 HIT:          0 MISS:          0 MSHR_MERGE:          0
cpu0->cpu0_ITLB WRITE        ACCESS:          0 HIT:          0 MISS:          0 MSHR_MERGE:          0
cpu0->cpu0_ITLB TRANSLATION  ACCESS:          0 HIT:          0 MISS:          0 MSHR_MERGE:          0
cpu0->cpu0_ITLB PREFETCH REQUESTED:          0 ISSUED:          0 USEFUL:          0 USELESS:          0
cpu0->cpu0_ITLB AVERAGE MISS LATENCY: 844.3 cycles
cpu0->cpu0_DTLB TOTAL        ACCESS:    4824071 HIT:    4808631 MISS:      15440 MSHR_MERGE:       7422
cpu0->cpu0_DTLB LOAD         ACCESS:    4824071 HIT:    4808631 MISS:      15440 MSHR_MERGE:       7422
cpu0->cpu0_DTLB RFO          ACCESS:          0 HIT:          0 MISS:          0 MSHR_MERGE:          0
cpu0->cpu0_DTLB PREFETCH     ACCESS:          0 HIT:          0 MISS:          0 MSHR_MERGE:          0
cpu0->cpu0_DTLB WRITE        ACCESS:          0 HIT:          0 MISS:          0 MSHR_MERGE:          0
cpu0->cpu0_DTLB TRANSLATION  ACCESS:          0 HIT:          0 MISS:          0 MSHR_MERGE:          0
cpu0->cpu0_DTLB PREFETCH REQUESTED:          0 ISSUED:          0 USEFUL:          0 USELESS:          0
cpu0->cpu0_DTLB AVERAGE MISS LATENCY: 62.28 cycles
cpu0->LLC TOTAL        ACCESS:     485351 HIT:     361369 MISS:     123982 MSHR_MERGE:          0
cpu0->LLC LOAD         ACCESS:     185235 HIT:     134215 MISS:      51020 MSHR_MERGE:          0
cpu0->LLC RFO          ACCESS:     130842 HIT:      58701 MISS:      72141 MSHR_MERGE:          0
cpu0->LLC PREFETCH     ACCESS:          0 HIT:          0 MISS:          0 MSHR_MERGE:          0
cpu0->LLC WRITE        ACCESS:     168457 HIT:     168450 MISS:          7 MSHR_MERGE:          0
cpu0->LLC TRANSLATION  ACCESS:        817 HIT:          3 MISS:        814 MSHR_MERGE:          0
cpu0->LLC PREFETCH REQUESTED:          0 ISSUED:          0 USEFUL:          0 USELESS:          0
cpu0->LLC AVERAGE MISS LATENCY: 279.9 cycles

DRAM Statistics

Channel 0 RQ ROW_BUFFER_HIT:       6807
  ROW_BUFFER_MISS:     117017
  AVG DBUS CONGESTED CYCLE: 9.423
Channel 0 WQ ROW_BUFFER_HIT:      21364
  ROW_BUFFER_MISS:      70640
  FULL:          0
Channel 0 REFRESHES ISSUED:       1836
