[VMEM] WARNING: physical memory size is smaller than virtual memory size.

*** ChampSim Multicore Out-of-Order Simulator ***
Warmup Instructions: 5000000
Simulation Instructions: 25000000
Number of CPUs: 1
Page size: 4096

Off-chip DRAM Size: 16 GiB Channels: 1 Width: 64-bit Data Rate: 3205 MT/s
Warmup finished CPU 0 instructions: 5000001 cycles: 1465711 cumulative IPC: 3.411 (Simulation time: 00 hr 00 min 19 sec)
Warmup complete CPU 0 instructions: 5000001 cycles: 1465711 cumulative IPC: 3.411 (Simulation time: 00 hr 00 min 19 sec)
Heartbeat CPU 0 instructions: 10000002 cycles: 5391746 heartbeat IPC: 1.855 cumulative IPC: 1.274 (Simulation time: 00 hr 00 min 55 sec)
Heartbeat CPU 0 instructions: 20000003 cycles: 13261444 heartbeat IPC: 1.271 cumulative IPC: 1.272 (Simulation time: 00 hr 02 min 03 sec)
Simulation finished CPU 0 instructions: 25000001 cycles: 19674200 cumulative IPC: 1.271 (Simulation time: 00 hr 03 min 04 sec)
Simulation complete CPU 0 instructions: 25000001 cycles: 19674200 cumulative IPC: 1.271 (Simulation time: 00 hr 03 min 04 sec)

ChampSim completed all CPUs

=== Simulation ===
CPU 0 runs ../../hw2/traces/628.pop2_s-17B.champsimtrace.xz

Region of Interest Statistics

CPU 0 cumulative IPC: 1.271 instructions: 25000001 cycles: 19674200
CPU 0 Branch Prediction Accuracy: 96.44% MPKI: 4.069 Average ROB Occupancy at Mispredict: 91.98
Branch type MPKI
BRANCH_DIRECT_JUMP: 0.05124
BRANCH_INDIRECT: 0.0016
BRANCH_CONDITIONAL: 4.016
BRANCH_DIRECT_CALL: 0
BRANCH_INDIRECT_CALL: 0
BRANCH_RETURN: 0

cpu0->cpu0_STLB TOTAL        ACCESS:      22006 HIT:      20776 MISS:       1230 MSHR_MERGE:          0
cpu0->cpu0_STLB LOAD         ACCESS:      22006 HIT:      20776 MISS:       1230 MSHR_MERGE:          0
cpu0->cpu0_STLB RFO          ACCESS:          0 HIT:          0 MISS:          0 MSHR_MERGE:          0
cpu0->cpu0_STLB PREFETCH     ACCESS:          0 HIT:          0 MISS:          0 MSHR_MERGE:          0
cpu0->cpu0_STLB WRITE        ACCESS:          0 HIT:          0 MISS:          0 MSHR_MERGE:          0
cpu0->cpu0_STLB TRANSLATION  ACCESS:          0 HIT:          0 MISS:          0 MSHR_MERGE:          0
cpu0->cpu0_STLB PREFETCH REQUESTED:          0 ISSUED:          0 USEFUL:          0 USELESS:          0
cpu0->cpu0_STLB AVERAGE MISS LATENCY: 746.5 cycles
cpu0->cpu0_L2C TOTAL        ACCESS:     753563 HIT:     525197 MISS:     228366 MSHR_MERGE:          0
cpu0->cpu0_L2C LOAD         ACCESS:     410749 HIT:     238335 MISS:     172414 MSHR_MERGE:          0
cpu0->cpu0_L2C RFO          ACCESS:     136429 HIT:      83265 MISS:      53164 MSHR_MERGE:          0
cpu0->cpu0_L2C PREFETCH     ACCESS:          0 HIT:          0 MISS:          0 MSHR_MERGE:          0
cpu0->cpu0_L2C WRITE        ACCESS:     203787 HIT:     203465 MISS:        322 MSHR_MERGE:          0
cpu0->cpu0_L2C TRANSLATION  ACCESS:       2598 HIT:        132 MISS:       2466 MSHR_MERGE:          0
cpu0->cpu0_L2C PREFETCH REQUESTED:          0 ISSUED:          0 USEFUL:          0 USELESS:          0
cpu0->cpu0_L2C AVERAGE MISS LATENCY: 80.74 cycles
cpu0->cpu0_L1I TOTAL        ACCESS:    1893634 HIT:    1839235 MISS:      54399 MSHR_MERGE:      24858
cpu0->cpu0_L1I LOAD         ACCESS:    1893634 HIT:    1839235 MISS:      54399 MSHR_MERGE:      24858
cpu0->cpu0_L1I RFO          ACCESS:          0 HIT:          0 MISS:          0 MSHR_MERGE:          0
cpu0->cpu0_L1I PREFETCH     ACCESS:          0 HIT:          0 MISS:          0 MSHR_MERGE:          0
cpu0->cpu0_L1I WRITE        ACCESS:          0 HIT:          0 MISS:          0 MSHR_MERGE:          0
cpu0->cpu0_L1I TRANSLATION  ACCESS:          0 HIT:          0 MISS:          0 MSHR_MERGE:          0
cpu0->cpu0_L1I PREFETCH REQUESTED:          0 ISSUED:          0 USEFUL:          0 USELESS:          0
cpu0->cpu0_L1I AVERAGE MISS LATENCY: 23.02 cycles
cpu0->cpu0_L1D TOTAL        ACCESS:    6522003 HIT:    5354679 MISS:    1167324 MSHR_MERGE:     647085
cpu0->cpu0_L1D LOAD         ACCESS:    4626957 HIT:    3913978 MISS:     712979 MSHR_MERGE:     331769
cpu0->cpu0_L1D RFO          ACCESS:          0 HIT:          0 MISS:          0 MSHR_MERGE:          0
cpu0->cpu0_L1D PREFETCH     ACCESS:          0 HIT:          0 MISS:          0 MSHR_MERGE:          0
cpu0->cpu0_L1D WRITE        ACCESS:    1892180 HIT:    1440509 MISS:     451671 MSHR_MERGE:     315240
cpu0->cpu0_L1D TRANSLATION  ACCESS:       2866 HIT:        192 MISS:       2674 MSHR_MERGE:         76
cpu0->cpu0_L1D PREFETCH REQUESTED:          0 ISSUED:          0 USEFUL:          0 USELESS:          0
cpu0->cpu0_L1D AVERAGE MISS LATENCY: 43.04 cycles
cpu0->cpu0_ITLB TOTAL        ACCESS:    1541574 HIT:    1538444 MISS:       3130 MSHR_MERGE:       1891
cpu0->cpu0_ITLB LOAD         ACCESS:    1541574 HIT:    1538444 MISS:       3130 MSHR_MERGE:       1891
cpu0->cpu0_ITLB RFO          ACCESS:          0 HIT:          0 MISS:          0 MSHR_MERGE:          0
cpu0->cpu0_ITLB PREFETCH     ACCESS:          0 HIT:          0 MISS:          0 MSHR_MERGE:          0
cpu0->cpu0_ITLB WRITE        ACCESS:          0 HIT:          0 MISS:          0 MSHR_MERGE:          0
cpu0->cpu0_ITLB TRANSLATION  ACCESS:          0 HIT:          0 MISS:          0 MSHR_MERGE:          0
cpu0->cpu0_ITLB PREFETCH REQUESTED:          0 ISSUED:          0 USEFUL:          0 USELESS:          0
cpu0->cpu0_ITLB AVERAGE MISS LATENCY: 5 cycles
cpu0->cpu0_DTLB TOTAL        ACCESS:    6268895 HIT:    6233501 MISS:      35394 MSHR_MERGE:      14627
cpu0->cpu0_DTLB LOAD         ACCESS:    6268895 HIT:    6233501 MISS:      35394 MSHR_MERGE:      14627
cpu0->cpu0_DTLB RFO          ACCESS:          0 HIT:          0 MISS:          0 MSHR_MERGE:          0
cpu0->cpu0_DTLB PREFETCH     ACCESS:          0 HIT:          0 MISS:          0 MSHR_MERGE:          0
cpu0->cpu0_DTLB WRITE        ACCESS:          0 HIT:          0 MISS:          0 MSHR_MERGE:          0
cpu0->cpu0_DTLB TRANSLATION  ACCESS:          0 HIT:          0 MISS:          0 MSHR_MERGE:          0
cpu0->cpu0_DTLB PREFETCH REQUESTED:          0 ISSUED:          0 USEFUL:          0 USELESS:          0
cpu0->cpu0_DTLB AVERAGE MISS LATENCY: 49.28 cycles
cpu0->LLC TOTAL        ACCESS:     316488 HIT:     237401 MISS:      79087 MSHR_MERGE:          0
cpu0->LLC LOAD         ACCESS:     172414 HIT:     101773 MISS:      70641 MSHR_MERGE:          0
cpu0->LLC RFO          ACCESS:      53164 HIT:      47044 MISS:       6120 MSHR_MERGE:          0
cpu0->LLC PREFETCH     ACCESS:          0 HIT:          0 MISS:          0 MSHR_MERGE:          0
cpu0->LLC WRITE        ACCESS:      88444 HIT:      87887 MISS:        557 MSHR_MERGE:          0
cpu0->LLC TRANSLATION  ACCESS:       2466 HIT:        697 MISS:       1769 MSHR_MERGE:          0
cpu0->LLC PREFETCH REQUESTED:          0 ISSUED:          0 USEFUL:          0 USELESS:          0
cpu0->LLC AVERAGE MISS LATENCY: 188.9 cycles

DRAM Statistics

Channel 0 RQ ROW_BUFFER_HIT:       2212
  ROW_BUFFER_MISS:      76296
  AVG DBUS CONGESTED CYCLE: 14.77
Channel 0 WQ ROW_BUFFER_HIT:       5161
  ROW_BUFFER_MISS:      15418
  FULL:          0
Channel 0 REFRESHES ISSUED:       1639
