[VMEM] WARNING: physical memory size is smaller than virtual memory size.

*** ChampSim Multicore Out-of-Order Simulator ***
Warmup Instructions: 5000000
Simulation Instructions: 25000000
Number of CPUs: 1
Page size: 4096

Off-chip DRAM Size: 16 GiB Channels: 1 Width: 64-bit Data Rate: 3205 MT/s
Warmup finished CPU 0 instructions: 5000001 cycles: 1343832 cumulative IPC: 3.721 (Simulation time: 00 hr 00 min 18 sec)
Warmup complete CPU 0 instructions: 5000001 cycles: 1343832 cumulative IPC: 3.721 (Simulation time: 00 hr 00 min 18 sec)
Heartbeat CPU 0 instructions: 10000002 cycles: 5045367 heartbeat IPC: 1.982 cumulative IPC: 1.351 (Simulation time: 00 hr 00 min 46 sec)
Heartbeat CPU 0 instructions: 20000003 cycles: 17300253 heartbeat IPC: 0.816 cumulative IPC: 0.9401 (Simulation time: 00 hr 02 min 12 sec)
Simulation finished CPU 0 instructions: 25000000 cycles: 23719469 cumulative IPC: 1.054 (Simulation time: 00 hr 02 min 59 sec)
Simulation complete CPU 0 instructions: 25000000 cycles: 23719469 cumulative IPC: 1.054 (Simulation time: 00 hr 02 min 59 sec)

ChampSim completed all CPUs

=== Simulation ===
CPU 0 runs ../../hw2/traces/641.leela_s-149B.champsimtrace.xz

Region of Interest Statistics

CPU 0 cumulative IPC: 1.054 instructions: 25000000 cycles: 23719469
CPU 0 Branch Prediction Accuracy: 89.11% MPKI: 18.82 Average ROB Occupancy at Mispredict: 21.73
Branch type MPKI
BRANCH_DIRECT_JUMP: 0.1037
BRANCH_INDIRECT: 0.02064
BRANCH_CONDITIONAL: 18.64
BRANCH_DIRECT_CALL: 0.01192
BRANCH_INDIRECT_CALL: 0.0072
BRANCH_RETURN: 0.03844

cpu0->cpu0_STLB TOTAL        ACCESS:      12554 HIT:      12076 MISS:        478 MSHR_MERGE:          0
cpu0->cpu0_STLB LOAD         ACCESS:      12554 HIT:      12076 MISS:        478 MSHR_MERGE:          0
cpu0->cpu0_STLB RFO          ACCESS:          0 HIT:          0 MISS:          0 MSHR_MERGE:          0
cpu0->cpu0_STLB PREFETCH     ACCESS:          0 HIT:          0 MISS:          0 MSHR_MERGE:          0
cpu0->cpu0_STLB WRITE        ACCESS:          0 HIT:          0 MISS:          0 MSHR_MERGE:          0
cpu0->cpu0_STLB TRANSLATION  ACCESS:          0 HIT:          0 MISS:          0 MSHR_MERGE:          0
cpu0->cpu0_STLB PREFETCH REQUESTED:          0 ISSUED:          0 USEFUL:          0 USELESS:          0
cpu0->cpu0_STLB AVERAGE MISS LATENCY: 732.8 cycles
cpu0->cpu0_L2C TOTAL        ACCESS:     292660 HIT:     203032 MISS:      89628 MSHR_MERGE:          0
cpu0->cpu0_L2C LOAD         ACCESS:     124396 HIT:      67221 MISS:      57175 MSHR_MERGE:          0
cpu0->cpu0_L2C RFO          ACCESS:      63889 HIT:      32244 MISS:      31645 MSHR_MERGE:          0
cpu0->cpu0_L2C PREFETCH     ACCESS:          0 HIT:          0 MISS:          0 MSHR_MERGE:          0
cpu0->cpu0_L2C WRITE        ACCESS:     103624 HIT:     103565 MISS:         59 MSHR_MERGE:          0
cpu0->cpu0_L2C TRANSLATION  ACCESS:        751 HIT:          2 MISS:        749 MSHR_MERGE:          0
cpu0->cpu0_L2C PREFETCH REQUESTED:          0 ISSUED:          0 USEFUL:          0 USELESS:          0
cpu0->cpu0_L2C AVERAGE MISS LATENCY: 67.32 cycles
cpu0->cpu0_L1I TOTAL        ACCESS:    3051171 HIT:    3040042 MISS:      11129 MSHR_MERGE:       3852
cpu0->cpu0_L1I LOAD         ACCESS:    3051171 HIT:    3040042 MISS:      11129 MSHR_MERGE:       3852
cpu0->cpu0_L1I RFO          ACCESS:          0 HIT:          0 MISS:          0 MSHR_MERGE:          0
cpu0->cpu0_L1I PREFETCH     ACCESS:          0 HIT:          0 MISS:          0 MSHR_MERGE:          0
cpu0->cpu0_L1I WRITE        ACCESS:          0 HIT:          0 MISS:          0 MSHR_MERGE:          0
cpu0->cpu0_L1I TRANSLATION  ACCESS:          0 HIT:          0 MISS:          0 MSHR_MERGE:          0
cpu0->cpu0_L1I PREFETCH REQUESTED:          0 ISSUED:          0 USEFUL:          0 USELESS:          0
cpu0->cpu0_L1I AVERAGE MISS LATENCY: 30.25 cycles
cpu0->cpu0_L1D TOTAL        ACCESS:    8178435 HIT:    7747825 MISS:     430610 MSHR_MERGE:     248851
cpu0->cpu0_L1D LOAD         ACCESS:    4620688 HIT:    4441932 MISS:     178756 MSHR_MERGE:      61637
cpu0->cpu0_L1D RFO          ACCESS:          0 HIT:          0 MISS:          0 MSHR_MERGE:          0
cpu0->cpu0_L1D PREFETCH     ACCESS:          0 HIT:          0 MISS:          0 MSHR_MERGE:          0
cpu0->cpu0_L1D WRITE        ACCESS:    3556790 HIT:    3305687 MISS:     251103 MSHR_MERGE:     187214
cpu0->cpu0_L1D TRANSLATION  ACCESS:        957 HIT:        206 MISS:        751 MSHR_MERGE:          0
cpu0->cpu0_L1D PREFETCH REQUESTED:          0 ISSUED:          0 USEFUL:          0 USELESS:          0
cpu0->cpu0_L1D AVERAGE MISS LATENCY: 40.83 cycles
cpu0->cpu0_ITLB TOTAL        ACCESS:    2773636 HIT:    2773021 MISS:        615 MSHR_MERGE:        329
cpu0->cpu0_ITLB LOAD         ACCESS:    2773636 HIT:    2773021 MISS:        615 MSHR_MERGE:        329
cpu0->cpu0_ITLB RFO          ACCESS:          0 HIT:          0 MISS:          0 MSHR_MERGE:          0
cpu0->cpu0_ITLB PREFETCH     ACCESS:          0 HIT:          0 MISS:          0 MSHR_MERGE:          0
cpu0->cpu0_ITLB WRITE        ACCESS:          0 HIT:          0 MISS:          0 MSHR_MERGE:          0
cpu0->cpu0_ITLB TRANSLATION  ACCESS:          0 HIT:          0 MISS:          0 MSHR_MERGE:          0
cpu0->cpu0_ITLB PREFETCH REQUESTED:          0 ISSUED:          0 USEFUL:          0 USELESS:          0
cpu0->cpu0_ITLB AVERAGE MISS LATENCY: 122.2 cycles
cpu0->cpu0_DTLB TOTAL        ACCESS:    7745417 HIT:    7727796 MISS:      17621 MSHR_MERGE:       5353
cpu0->cpu0_DTLB LOAD         ACCESS:    7745417 HIT:    7727796 MISS:      17621 MSHR_MERGE:       5353
cpu0->cpu0_DTLB RFO          ACCESS:          0 HIT:          0 MISS:          0 MSHR_MERGE:          0
cpu0->cpu0_DTLB PREFETCH     ACCESS:          0 HIT:          0 MISS:          0 MSHR_MERGE:          0
cpu0->cpu0_DTLB WRITE        ACCESS:          0 HIT:          0 MISS:          0 MSHR_MERGE:          0
cpu0->cpu0_DTLB TRANSLATION  ACCESS:          0 HIT:          0 MISS:          0 MSHR_MERGE:          0
cpu0->cpu0_DTLB PREFETCH REQUESTED:          0 ISSUED:          0 USEFUL:          0 USELESS:          0
cpu0->cpu0_DTLB AVERAGE MISS LATENCY: 30.86 cycles
cpu0->LLC TOTAL        ACCESS:     145718 HIT:     118499 MISS:      27219 MSHR_MERGE:          0
cpu0->LLC LOAD         ACCESS:      57175 HIT:      38663 MISS:      18512 MSHR_MERGE:          0
cpu0->LLC RFO          ACCESS:      31645 HIT:      23684 MISS:       7961 MSHR_MERGE:          0
cpu0->LLC PREFETCH     ACCESS:          0 HIT:          0 MISS:          0 MSHR_MERGE:          0
cpu0->LLC WRITE        ACCESS:      56149 HIT:      56145 MISS:          4 MSHR_MERGE:          0
cpu0->LLC TRANSLATION  ACCESS:        749 HIT:          7 MISS:        742 MSHR_MERGE:          0
cpu0->LLC PREFETCH REQUESTED:          0 ISSUED:          0 USEFUL:          0 USELESS:          0
cpu0->LLC AVERAGE MISS LATENCY: 171.3 cycles

DRAM Statistics

Channel 0 RQ ROW_BUFFER_HIT:       2585
  ROW_BUFFER_MISS:      24626
  AVG DBUS CONGESTED CYCLE: 15.81
Channel 0 WQ ROW_BUFFER_HIT:        280
  ROW_BUFFER_MISS:       1181
  FULL:          0
Channel 0 REFRESHES ISSUED:       1977
