[VMEM] WARNING: physical memory size is smaller than virtual memory size.

*** ChampSim Multicore Out-of-Order Simulator ***
Warmup Instructions: 5000000
Simulation Instructions: 25000000
Number of CPUs: 1
Page size: 4096

Off-chip DRAM Size: 16 GiB Channels: 1 Width: 64-bit Data Rate: 3205 MT/s
Warmup finished CPU 0 instructions: 5000001 cycles: 1471214 cumulative IPC: 3.399 (Simulation time: 00 hr 00 min 20 sec)
Warmup complete CPU 0 instructions: 5000001 cycles: 1471214 cumulative IPC: 3.399 (Simulation time: 00 hr 00 min 20 sec)
Heartbeat CPU 0 instructions: 10000004 cycles: 3943026 heartbeat IPC: 2.536 cumulative IPC: 2.023 (Simulation time: 00 hr 00 min 47 sec)
Heartbeat CPU 0 instructions: 20000005 cycles: 13389066 heartbeat IPC: 1.059 cumulative IPC: 1.259 (Simulation time: 00 hr 02 min 00 sec)
Simulation finished CPU 0 instructions: 25000001 cycles: 19214492 cumulative IPC: 1.301 (Simulation time: 00 hr 02 min 59 sec)
Simulation complete CPU 0 instructions: 25000001 cycles: 19214492 cumulative IPC: 1.301 (Simulation time: 00 hr 02 min 59 sec)

ChampSim completed all CPUs

=== Simulation ===
CPU 0 runs ../../hw2/traces/654.roms_s-293B.champsimtrace.xz

Region of Interest Statistics

CPU 0 cumulative IPC: 1.301 instructions: 25000001 cycles: 19214492
CPU 0 Branch Prediction Accuracy: 99.8% MPKI: 0.02152 Average ROB Occupancy at Mispredict: 336.7
Branch type MPKI
BRANCH_DIRECT_JUMP: 0
BRANCH_INDIRECT: 0
BRANCH_CONDITIONAL: 0.02152
BRANCH_DIRECT_CALL: 0
BRANCH_INDIRECT_CALL: 0
BRANCH_RETURN: 0

cpu0->cpu0_STLB TOTAL        ACCESS:       6395 HIT:       4143 MISS:       2252 MSHR_MERGE:          0
cpu0->cpu0_STLB LOAD         ACCESS:       6395 HIT:       4143 MISS:       2252 MSHR_MERGE:          0
cpu0->cpu0_STLB RFO          ACCESS:          0 HIT:          0 MISS:          0 MSHR_MERGE:          0
cpu0->cpu0_STLB PREFETCH     ACCESS:          0 HIT:          0 MISS:          0 MSHR_MERGE:          0
cpu0->cpu0_STLB WRITE        ACCESS:          0 HIT:          0 MISS:          0 MSHR_MERGE:          0
cpu0->cpu0_STLB TRANSLATION  ACCESS:          0 HIT:          0 MISS:          0 MSHR_MERGE:          0
cpu0->cpu0_STLB PREFETCH REQUESTED:          0 ISSUED:          0 USEFUL:          0 USELESS:          0
cpu0->cpu0_STLB AVERAGE MISS LATENCY: 887.9 cycles
cpu0->cpu0_L2C TOTAL        ACCESS:     401565 HIT:     165579 MISS:     235986 MSHR_MERGE:          0
cpu0->cpu0_L2C LOAD         ACCESS:     146882 HIT:      39314 MISS:     107568 MSHR_MERGE:          0
cpu0->cpu0_L2C RFO          ACCESS:     124930 HIT:        707 MISS:     124223 MSHR_MERGE:          0
cpu0->cpu0_L2C PREFETCH     ACCESS:          0 HIT:          0 MISS:          0 MSHR_MERGE:          0
cpu0->cpu0_L2C WRITE        ACCESS:     125179 HIT:     125065 MISS:        114 MSHR_MERGE:          0
cpu0->cpu0_L2C TRANSLATION  ACCESS:       4574 HIT:        493 MISS:       4081 MSHR_MERGE:          0
cpu0->cpu0_L2C PREFETCH REQUESTED:          0 ISSUED:          0 USEFUL:          0 USELESS:          0
cpu0->cpu0_L2C AVERAGE MISS LATENCY: 173.6 cycles
cpu0->cpu0_L1I TOTAL        ACCESS:    4941004 HIT:    4940996 MISS:          8 MSHR_MERGE:          2
cpu0->cpu0_L1I LOAD         ACCESS:    4941004 HIT:    4940996 MISS:          8 MSHR_MERGE:          2
cpu0->cpu0_L1I RFO          ACCESS:          0 HIT:          0 MISS:          0 MSHR_MERGE:          0
cpu0->cpu0_L1I PREFETCH     ACCESS:          0 HIT:          0 MISS:          0 MSHR_MERGE:          0
cpu0->cpu0_L1I WRITE        ACCESS:          0 HIT:          0 MISS:          0 MSHR_MERGE:          0
cpu0->cpu0_L1I TRANSLATION  ACCESS:          0 HIT:          0 MISS:          0 MSHR_MERGE:          0
cpu0->cpu0_L1I PREFETCH REQUESTED:          0 ISSUED:          0 USEFUL:          0 USELESS:          0
cpu0->cpu0_L1I AVERAGE MISS LATENCY: 198.3 cycles
cpu0->cpu0_L1D TOTAL        ACCESS:    7643856 HIT:    7005650 MISS:     638206 MSHR_MERGE:     361799
cpu0->cpu0_L1D LOAD         ACCESS:    5271606 HIT:    5029364 MISS:     242242 MSHR_MERGE:      95366
cpu0->cpu0_L1D RFO          ACCESS:          0 HIT:          0 MISS:          0 MSHR_MERGE:          0
cpu0->cpu0_L1D PREFETCH     ACCESS:          0 HIT:          0 MISS:          0 MSHR_MERGE:          0
cpu0->cpu0_L1D WRITE        ACCESS:    2366627 HIT:    1975258 MISS:     391369 MSHR_MERGE:     266412
cpu0->cpu0_L1D TRANSLATION  ACCESS:       5623 HIT:       1028 MISS:       4595 MSHR_MERGE:         21
cpu0->cpu0_L1D PREFETCH REQUESTED:          0 ISSUED:          0 USEFUL:          0 USELESS:          0
cpu0->cpu0_L1D AVERAGE MISS LATENCY: 157.1 cycles
cpu0->cpu0_ITLB TOTAL        ACCESS:    3622744 HIT:    3622744 MISS:          0 MSHR_MERGE:          0
cpu0->cpu0_ITLB LOAD         ACCESS:    3622744 HIT:    3622744 MISS:          0 MSHR_MERGE:          0
cpu0->cpu0_ITLB RFO          ACCESS:          0 HIT:          0 MISS:          0 MSHR_MERGE:          0
cpu0->cpu0_ITLB PREFETCH     ACCESS:          0 HIT:          0 MISS:          0 MSHR_MERGE:          0
cpu0->cpu0_ITLB WRITE        ACCESS:          0 HIT:          0 MISS:          0 MSHR_MERGE:          0
cpu0->cpu0_ITLB TRANSLATION  ACCESS:          0 HIT:          0 MISS:          0 MSHR_MERGE:          0
cpu0->cpu0_ITLB PREFETCH REQUESTED:          0 ISSUED:          0 USEFUL:          0 USELESS:          0
cpu0->cpu0_ITLB AVERAGE MISS LATENCY: - cycles
cpu0->cpu0_DTLB TOTAL        ACCESS:    7202797 HIT:    7186918 MISS:      15879 MSHR_MERGE:       9484
cpu0->cpu0_DTLB LOAD         ACCESS:    7202797 HIT:    7186918 MISS:      15879 MSHR_MERGE:       9484
cpu0->cpu0_DTLB RFO          ACCESS:          0 HIT:          0 MISS:          0 MSHR_MERGE:          0
cpu0->cpu0_DTLB PREFETCH     ACCESS:          0 HIT:          0 MISS:          0 MSHR_MERGE:          0
cpu0->cpu0_DTLB WRITE        ACCESS:          0 HIT:          0 MISS:          0 MSHR_MERGE:          0
cpu0->cpu0_DTLB TRANSLATION  ACCESS:          0 HIT:          0 MISS:          0 MSHR_MERGE:          0
cpu0->cpu0_DTLB PREFETCH REQUESTED:          0 ISSUED:          0 USEFUL:          0 USELESS:          0
cpu0->cpu0_DTLB AVERAGE MISS LATENCY: 318 cycles
cpu0->LLC TOTAL        ACCESS:     357823 HIT:     198036 MISS:     159787 MSHR_MERGE:          0
cpu0->LLC LOAD         ACCESS:     107568 HIT:      43546 MISS:      64022 MSHR_MERGE:          0
cpu0->LLC RFO          ACCESS:     124223 HIT:      32506 MISS:      91717 MSHR_MERGE:          0
cpu0->LLC PREFETCH     ACCESS:          0 HIT:          0 MISS:          0 MSHR_MERGE:          0
cpu0->LLC WRITE        ACCESS:     121951 HIT:     121907 MISS:         44 MSHR_MERGE:          0
cpu0->LLC TRANSLATION  ACCESS:       4081 HIT:         77 MISS:       4004 MSHR_MERGE:          0
cpu0->LLC PREFETCH REQUESTED:          0 ISSUED:          0 USEFUL:          0 USELESS:          0
cpu0->LLC AVERAGE MISS LATENCY: 233.2 cycles

DRAM Statistics

Channel 0 RQ ROW_BUFFER_HIT:        674
  ROW_BUFFER_MISS:     158800
  AVG DBUS CONGESTED CYCLE: 6.848
Channel 0 WQ ROW_BUFFER_HIT:      28941
  ROW_BUFFER_MISS:      68409
  FULL:          0
Channel 0 REFRESHES ISSUED:       1601
