[VMEM] WARNING: physical memory size is smaller than virtual memory size.

*** ChampSim Multicore Out-of-Order Simulator ***
Warmup Instructions: 5000000
Simulation Instructions: 25000000
Number of CPUs: 1
Page size: 4096

Off-chip DRAM Size: 16 GiB Channels: 1 Width: 64-bit Data Rate: 3205 MT/s
Warmup finished CPU 0 instructions: 5000003 cycles: 1752015 cumulative IPC: 2.854 (Simulation time: 00 hr 00 min 21 sec)
Warmup complete CPU 0 instructions: 5000003 cycles: 1752015 cumulative IPC: 2.854 (Simulation time: 00 hr 00 min 21 sec)
Heartbeat CPU 0 instructions: 10000002 cycles: 21274287 heartbeat IPC: 0.4701 cumulative IPC: 0.2561 (Simulation time: 00 hr 02 min 02 sec)
Heartbeat CPU 0 instructions: 20000002 cycles: 61189617 heartbeat IPC: 0.2505 cumulative IPC: 0.2524 (Simulation time: 00 hr 05 min 30 sec)
Heartbeat CPU 0 instructions: 30000004 cycles: 100707506 heartbeat IPC: 0.2531 cumulative IPC: 0.2526 (Simulation time: 00 hr 08 min 53 sec)
Simulation finished CPU 0 instructions: 25000001 cycles: 98955491 cumulative IPC: 0.2526 (Simulation time: 00 hr 08 min 53 sec)
Simulation complete CPU 0 instructions: 25000001 cycles: 98955491 cumulative IPC: 0.2526 (Simulation time: 00 hr 08 min 53 sec)

ChampSim completed all CPUs

=== Simulation ===
CPU 0 runs ../../hw2/traces/602.gcc_s-1850B.champsimtrace.xz

Region of Interest Statistics

CPU 0 cumulative IPC: 0.2526 instructions: 25000001 cycles: 98955491
CPU 0 Branch Prediction Accuracy: 92.26% MPKI: 19.85 Average ROB Occupancy at Mispredict: 28.68
Branch type MPKI
BRANCH_DIRECT_JUMP: 0.01196
BRANCH_INDIRECT: 0
BRANCH_CONDITIONAL: 19.84
BRANCH_DIRECT_CALL: 0
BRANCH_INDIRECT_CALL: 0
BRANCH_RETURN: 0

cpu0->cpu0_STLB TOTAL        ACCESS:       8296 HIT:        660 MISS:       7636 MSHR_MERGE:          0
cpu0->cpu0_STLB LOAD         ACCESS:       8296 HIT:        660 MISS:       7636 MSHR_MERGE:          0
cpu0->cpu0_STLB RFO          ACCESS:          0 HIT:          0 MISS:          0 MSHR_MERGE:          0
cpu0->cpu0_STLB PREFETCH     ACCESS:          0 HIT:          0 MISS:          0 MSHR_MERGE:          0
cpu0->cpu0_STLB WRITE        ACCESS:          0 HIT:          0 MISS:          0 MSHR_MERGE:          0
cpu0->cpu0_STLB TRANSLATION  ACCESS:          0 HIT:          0 MISS:          0 MSHR_MERGE:          0
cpu0->cpu0_STLB PREFETCH REQUESTED:          0 ISSUED:          0 USEFUL:          0 USELESS:          0
cpu0->cpu0_STLB AVERAGE MISS LATENCY: 678.2 cycles
cpu0->cpu0_L2C TOTAL        ACCESS:     615138 HIT:     160196 MISS:     454942 MSHR_MERGE:          0
cpu0->cpu0_L2C LOAD         ACCESS:     603944 HIT:     158737 MISS:     445207 MSHR_MERGE:          0
cpu0->cpu0_L2C RFO          ACCESS:        158 HIT:          0 MISS:        158 MSHR_MERGE:          0
cpu0->cpu0_L2C PREFETCH     ACCESS:          0 HIT:          0 MISS:          0 MSHR_MERGE:          0
cpu0->cpu0_L2C WRITE        ACCESS:       1588 HIT:       1406 MISS:        182 MSHR_MERGE:          0
cpu0->cpu0_L2C TRANSLATION  ACCESS:       9448 HIT:         53 MISS:       9395 MSHR_MERGE:          0
cpu0->cpu0_L2C PREFETCH REQUESTED:          0 ISSUED:          0 USEFUL:          0 USELESS:          0
cpu0->cpu0_L2C AVERAGE MISS LATENCY: 159.2 cycles
cpu0->cpu0_L1I TOTAL        ACCESS:        320 HIT:        320 MISS:          0 MSHR_MERGE:          0
cpu0->cpu0_L1I LOAD         ACCESS:        320 HIT:        320 MISS:          0 MSHR_MERGE:          0
cpu0->cpu0_L1I RFO          ACCESS:          0 HIT:          0 MISS:          0 MSHR_MERGE:          0
cpu0->cpu0_L1I PREFETCH     ACCESS:          0 HIT:          0 MISS:          0 MSHR_MERGE:          0
cpu0->cpu0_L1I WRITE        ACCESS:          0 HIT:          0 MISS:          0 MSHR_MERGE:          0
cpu0->cpu0_L1I TRANSLATION  ACCESS:          0 HIT:          0 MISS:          0 MSHR_MERGE:          0
cpu0->cpu0_L1I PREFETCH REQUESTED:          0 ISSUED:          0 USEFUL:          0 USELESS:          0
cpu0->cpu0_L1I AVERAGE MISS LATENCY: - cycles
cpu0->cpu0_L1D TOTAL        ACCESS:    7476014 HIT:    6418212 MISS:    1057802 MSHR_MERGE:     444252
cpu0->cpu0_L1D LOAD         ACCESS:    5303132 HIT:    4254936 MISS:    1048196 MSHR_MERGE:     444252
cpu0->cpu0_L1D RFO          ACCESS:          0 HIT:          0 MISS:          0 MSHR_MERGE:          0
cpu0->cpu0_L1D PREFETCH     ACCESS:          0 HIT:          0 MISS:          0 MSHR_MERGE:          0
cpu0->cpu0_L1D WRITE        ACCESS:    2157534 HIT:    2157376 MISS:        158 MSHR_MERGE:          0
cpu0->cpu0_L1D TRANSLATION  ACCESS:      15348 HIT:       5900 MISS:       9448 MSHR_MERGE:          0
cpu0->cpu0_L1D PREFETCH REQUESTED:          0 ISSUED:          0 USEFUL:          0 USELESS:          0
cpu0->cpu0_L1D AVERAGE MISS LATENCY: 126.8 cycles
cpu0->cpu0_ITLB TOTAL        ACCESS:        241 HIT:        241 MISS:          0 MSHR_MERGE:          0
cpu0->cpu0_ITLB LOAD         ACCESS:        241 HIT:        241 MISS:          0 MSHR_MERGE:          0
cpu0->cpu0_ITLB RFO          ACCESS:          0 HIT:          0 MISS:          0 MSHR_MERGE:          0
cpu0->cpu0_ITLB PREFETCH     ACCESS:          0 HIT:          0 MISS:          0 MSHR_MERGE:          0
cpu0->cpu0_ITLB WRITE        ACCESS:          0 HIT:          0 MISS:          0 MSHR_MERGE:          0
cpu0->cpu0_ITLB TRANSLATION  ACCESS:          0 HIT:          0 MISS:          0 MSHR_MERGE:          0
cpu0->cpu0_ITLB PREFETCH REQUESTED:          0 ISSUED:          0 USEFUL:          0 USELESS:          0
cpu0->cpu0_ITLB AVERAGE MISS LATENCY: - cycles
cpu0->cpu0_DTLB TOTAL        ACCESS:    7266613 HIT:    7250943 MISS:      15670 MSHR_MERGE:       7374
cpu0->cpu0_DTLB LOAD         ACCESS:    7266613 HIT:    7250943 MISS:      15670 MSHR_MERGE:       7374
cpu0->cpu0_DTLB RFO          ACCESS:          0 HIT:          0 MISS:          0 MSHR_MERGE:          0
cpu0->cpu0_DTLB PREFETCH     ACCESS:          0 HIT:          0 MISS:          0 MSHR_MERGE:          0
cpu0->cpu0_DTLB WRITE        ACCESS:          0 HIT:          0 MISS:          0 MSHR_MERGE:          0
cpu0->cpu0_DTLB TRANSLATION  ACCESS:          0 HIT:          0 MISS:          0 MSHR_MERGE:          0
cpu0->cpu0_DTLB PREFETCH REQUESTED:          0 ISSUED:          0 USEFUL:          0 USELESS:          0
cpu0->cpu0_DTLB AVERAGE MISS LATENCY: 630.2 cycles
cpu0->LLC TOTAL        ACCESS:     455033 HIT:       1596 MISS:     453437 MSHR_MERGE:          0
cpu0->LLC LOAD         ACCESS:     445207 HIT:       1055 MISS:     444152 MSHR_MERGE:          0
cpu0->LLC RFO          ACCESS:        158 HIT:          0 MISS:        158 MSHR_MERGE:          0
cpu0->LLC PREFETCH     ACCESS:          0 HIT:          0 MISS:          0 MSHR_MERGE:          0
cpu0->LLC WRITE        ACCESS:        273 HIT:        272 MISS:          1 MSHR_MERGE:          0
cpu0->LLC TRANSLATION  ACCESS:       9395 HIT:        269 MISS:       9126 MSHR_MERGE:          0
cpu0->LLC PREFETCH REQUESTED:          0 ISSUED:          0 USEFUL:          0 USELESS:          0
cpu0->LLC AVERAGE MISS LATENCY: 143.7 cycles

DRAM Statistics

Channel 0 RQ ROW_BUFFER_HIT:     114673
  ROW_BUFFER_MISS:     338764
  AVG DBUS CONGESTED CYCLE: 20.46
Channel 0 WQ ROW_BUFFER_HIT:         88
  ROW_BUFFER_MISS:        181
  FULL:          0
Channel 0 REFRESHES ISSUED:       8246
