[VMEM] WARNING: physical memory size is smaller than virtual memory size.

*** ChampSim Multicore Out-of-Order Simulator ***
Warmup Instructions: 5000000
Simulation Instructions: 25000000
Number of CPUs: 1
Page size: 4096

Off-chip DRAM Size: 16 GiB Channels: 1 Width: 64-bit Data Rate: 3205 MT/s
Warmup finished CPU 0 instructions: 5000003 cycles: 1406357 cumulative IPC: 3.555 (Simulation time: 00 hr 00 min 21 sec)
Warmup complete CPU 0 instructions: 5000003 cycles: 1406357 cumulative IPC: 3.555 (Simulation time: 00 hr 00 min 21 sec)
Heartbeat CPU 0 instructions: 10000004 cycles: 7083420 heartbeat IPC: 1.412 cumulative IPC: 0.8807 (Simulation time: 00 hr 01 min 12 sec)
Heartbeat CPU 0 instructions: 20000004 cycles: 18400144 heartbeat IPC: 0.8836 cumulative IPC: 0.8827 (Simulation time: 00 hr 02 min 48 sec)
Heartbeat CPU 0 instructions: 30000005 cycles: 29719156 heartbeat IPC: 0.8835 cumulative IPC: 0.883 (Simulation time: 00 hr 04 min 33 sec)
Simulation finished CPU 0 instructions: 25000002 cycles: 28312799 cumulative IPC: 0.883 (Simulation time: 00 hr 04 min 33 sec)
Simulation complete CPU 0 instructions: 25000002 cycles: 28312799 cumulative IPC: 0.883 (Simulation time: 00 hr 04 min 33 sec)

ChampSim completed all CPUs

=== Simulation ===
CPU 0 runs ../../hw2/traces/603.bwaves_s-2931B.champsimtrace.xz

Region of Interest Statistics

CPU 0 cumulative IPC: 0.883 instructions: 25000002 cycles: 28312799
CPU 0 Branch Prediction Accuracy: 80.62% MPKI: 1.636 Average ROB Occupancy at Mispredict: 300.4
Branch type MPKI
BRANCH_DIRECT_JUMP: 0
BRANCH_INDIRECT: 0
BRANCH_CONDITIONAL: 1.636
BRANCH_DIRECT_CALL: 0
BRANCH_INDIRECT_CALL: 0
BRANCH_RETURN: 0

cpu0->cpu0_STLB TOTAL        ACCESS:      42776 HIT:      37444 MISS:       5332 MSHR_MERGE:          0
cpu0->cpu0_STLB LOAD         ACCESS:      42776 HIT:      37444 MISS:       5332 MSHR_MERGE:          0
cpu0->cpu0_STLB RFO          ACCESS:          0 HIT:          0 MISS:          0 MSHR_MERGE:          0
cpu0->cpu0_STLB PREFETCH     ACCESS:          0 HIT:          0 MISS:          0 MSHR_MERGE:          0
cpu0->cpu0_STLB WRITE        ACCESS:          0 HIT:          0 MISS:          0 MSHR_MERGE:          0
cpu0->cpu0_STLB TRANSLATION  ACCESS:          0 HIT:          0 MISS:          0 MSHR_MERGE:          0
cpu0->cpu0_STLB PREFETCH REQUESTED:          0 ISSUED:          0 USEFUL:          0 USELESS:          0
cpu0->cpu0_STLB AVERAGE MISS LATENCY: 712.4 cycles
cpu0->cpu0_L2C TOTAL        ACCESS:     586583 HIT:     113582 MISS:     473001 MSHR_MERGE:          0
cpu0->cpu0_L2C LOAD         ACCESS:     259108 HIT:      12402 MISS:     246706 MSHR_MERGE:          0
cpu0->cpu0_L2C RFO          ACCESS:     157447 HIT:       8581 MISS:     148866 MSHR_MERGE:          0
cpu0->cpu0_L2C PREFETCH     ACCESS:          0 HIT:          0 MISS:          0 MSHR_MERGE:          0
cpu0->cpu0_L2C WRITE        ACCESS:     159393 HIT:      91390 MISS:      68003 MSHR_MERGE:          0
cpu0->cpu0_L2C TRANSLATION  ACCESS:      10635 HIT:       1209 MISS:       9426 MSHR_MERGE:          0
cpu0->cpu0_L2C PREFETCH REQUESTED:          0 ISSUED:          0 USEFUL:          0 USELESS:          0
cpu0->cpu0_L2C AVERAGE MISS LATENCY: 178.7 cycles
cpu0->cpu0_L1I TOTAL        ACCESS:    2840012 HIT:    2840004 MISS:          8 MSHR_MERGE:          1
cpu0->cpu0_L1I LOAD         ACCESS:    2840012 HIT:    2840004 MISS:          8 MSHR_MERGE:          1
cpu0->cpu0_L1I RFO          ACCESS:          0 HIT:          0 MISS:          0 MSHR_MERGE:          0
cpu0->cpu0_L1I PREFETCH     ACCESS:          0 HIT:          0 MISS:          0 MSHR_MERGE:          0
cpu0->cpu0_L1I WRITE        ACCESS:          0 HIT:          0 MISS:          0 MSHR_MERGE:          0
cpu0->cpu0_L1I TRANSLATION  ACCESS:          0 HIT:          0 MISS:          0 MSHR_MERGE:          0
cpu0->cpu0_L1I PREFETCH REQUESTED:          0 ISSUED:          0 USEFUL:          0 USELESS:          0
cpu0->cpu0_L1I AVERAGE MISS LATENCY: 197.6 cycles
cpu0->cpu0_L1D TOTAL        ACCESS:    8278740 HIT:    7476932 MISS:     801808 MSHR_MERGE:     374462
cpu0->cpu0_L1D LOAD         ACCESS:    3694864 HIT:    3433410 MISS:     261454 MSHR_MERGE:       2348
cpu0->cpu0_L1D RFO          ACCESS:          0 HIT:          0 MISS:          0 MSHR_MERGE:          0
cpu0->cpu0_L1D PREFETCH     ACCESS:          0 HIT:          0 MISS:          0 MSHR_MERGE:          0
cpu0->cpu0_L1D WRITE        ACCESS:    4573195 HIT:    4043476 MISS:     529719 MSHR_MERGE:     372114
cpu0->cpu0_L1D TRANSLATION  ACCESS:      10681 HIT:         46 MISS:      10635 MSHR_MERGE:          0
cpu0->cpu0_L1D PREFETCH REQUESTED:          0 ISSUED:          0 USEFUL:          0 USELESS:          0
cpu0->cpu0_L1D AVERAGE MISS LATENCY: 206.2 cycles
cpu0->cpu0_ITLB TOTAL        ACCESS:    2271448 HIT:    2271448 MISS:          0 MSHR_MERGE:          0
cpu0->cpu0_ITLB LOAD         ACCESS:    2271448 HIT:    2271448 MISS:          0 MSHR_MERGE:          0
cpu0->cpu0_ITLB RFO          ACCESS:          0 HIT:          0 MISS:          0 MSHR_MERGE:          0
cpu0->cpu0_ITLB PREFETCH     ACCESS:          0 HIT:          0 MISS:          0 MSHR_MERGE:          0
cpu0->cpu0_ITLB WRITE        ACCESS:          0 HIT:          0 MISS:          0 MSHR_MERGE:          0
cpu0->cpu0_ITLB TRANSLATION  ACCESS:          0 HIT:          0 MISS:          0 MSHR_MERGE:          0
cpu0->cpu0_ITLB PREFETCH REQUESTED:          0 ISSUED:          0 USEFUL:          0 USELESS:          0
cpu0->cpu0_ITLB AVERAGE MISS LATENCY: - cycles
cpu0->cpu0_DTLB TOTAL        ACCESS:    7582772 HIT:    7534831 MISS:      47941 MSHR_MERGE:       5165
cpu0->cpu0_DTLB LOAD         ACCESS:    7582772 HIT:    7534831 MISS:      47941 MSHR_MERGE:       5165
cpu0->cpu0_DTLB RFO          ACCESS:          0 HIT:          0 MISS:          0 MSHR_MERGE:          0
cpu0->cpu0_DTLB PREFETCH     ACCESS:          0 HIT:          0 MISS:          0 MSHR_MERGE:          0
cpu0->cpu0_DTLB WRITE        ACCESS:          0 HIT:          0 MISS:          0 MSHR_MERGE:          0
cpu0->cpu0_DTLB TRANSLATION  ACCESS:          0 HIT:          0 MISS:          0 MSHR_MERGE:          0
cpu0->cpu0_DTLB PREFETCH REQUESTED:          0 ISSUED:          0 USEFUL:          0 USELESS:          0
cpu0->cpu0_DTLB AVERAGE MISS LATENCY: 93.93 cycles
cpu0->LLC TOTAL        ACCESS:     554967 HIT:     201889 MISS:     353078 MSHR_MERGE:          0
cpu0->LLC LOAD         ACCESS:     246706 HIT:      54296 MISS:     192410 MSHR_MERGE:          0
cpu0->LLC RFO          ACCESS:     148866 HIT:         25 MISS:     148841 MSHR_MERGE:          0
cpu0->LLC PREFETCH     ACCESS:          0 HIT:          0 MISS:          0 MSHR_MERGE:          0
cpu0->LLC WRITE        ACCESS:     149969 HIT:     144295 MISS:       5674 MSHR_MERGE:          0
cpu0->LLC TRANSLATION  ACCESS:       9426 HIT:       3273 MISS:       6153 MSHR_MERGE:          0
cpu0->LLC PREFETCH REQUESTED:          0 ISSUED:          0 USEFUL:          0 USELESS:          0
cpu0->LLC AVERAGE MISS LATENCY: 220.6 cycles

DRAM Statistics

Channel 0 RQ ROW_BUFFER_HIT:          4
  ROW_BUFFER_MISS:     347399
  AVG DBUS CONGESTED CYCLE: 11.34
Channel 0 WQ ROW_BUFFER_HIT:      53058
  ROW_BUFFER_MISS:      97540
  FULL:          0
Channel 0 REFRESHES ISSUED:       2359
