[VMEM] WARNING: physical memory size is smaller than virtual memory size.

*** ChampSim Multicore Out-of-Order Simulator ***
Warmup Instructions: 5000000
Simulation Instructions: 25000000
Number of CPUs: 1
Page size: 4096

Off-chip DRAM Size: 16 GiB Channels: 1 Width: 64-bit Data Rate: 3205 MT/s
Warmup finished CPU 0 instructions: 5000001 cycles: 2092388 cumulative IPC: 2.39 (Simulation time: 00 hr 00 min 25 sec)
Warmup complete CPU 0 instructions: 5000001 cycles: 2092388 cumulative IPC: 2.39 (Simulation time: 00 hr 00 min 25 sec)
Heartbeat CPU 0 instructions: 10000001 cycles: 23209680 heartbeat IPC: 0.4309 cumulative IPC: 0.2368 (Simulation time: 00 hr 03 min 33 sec)
Heartbeat CPU 0 instructions: 20000001 cycles: 64596832 heartbeat IPC: 0.2416 cumulative IPC: 0.24 (Simulation time: 00 hr 09 min 51 sec)
Heartbeat CPU 0 instructions: 30000002 cycles: 105789145 heartbeat IPC: 0.2428 cumulative IPC: 0.2411 (Simulation time: 00 hr 14 min 07 sec)
Simulation finished CPU 0 instructions: 25000001 cycles: 103696757 cumulative IPC: 0.2411 (Simulation time: 00 hr 14 min 07 sec)
Simulation complete CPU 0 instructions: 25000001 cycles: 103696757 cumulative IPC: 0.2411 (Simulation time: 00 hr 14 min 07 sec)

ChampSim completed all CPUs

=== Simulation ===
CPU 0 runs ../../hw2/traces/605.mcf_s-1536B.champsimtrace.xz

Region of Interest Statistics

CPU 0 cumulative IPC: 0.2411 instructions: 25000001 cycles: 103696757
CPU 0 Branch Prediction Accuracy: 99.98% MPKI: 0.03768 Average ROB Occupancy at Mispredict: 190.2
Branch type MPKI
BRANCH_DIRECT_JUMP: 0
BRANCH_INDIRECT: 0
BRANCH_CONDITIONAL: 0.03768
BRANCH_DIRECT_CALL: 0
BRANCH_INDIRECT_CALL: 0
BRANCH_RETURN: 0

cpu0->cpu0_STLB TOTAL        ACCESS:     691048 HIT:     130043 MISS:     561005 MSHR_MERGE:          0
cpu0->cpu0_STLB LOAD         ACCESS:     691048 HIT:     130043 MISS:     561005 MSHR_MERGE:          0
cpu0->cpu0_STLB RFO          ACCESS:          0 HIT:          0 MISS:          0 MSHR_MERGE:          0
cpu0->cpu0_STLB PREFETCH     ACCESS:          0 HIT:          0 MISS:          0 MSHR_MERGE:          0
cpu0->cpu0_STLB WRITE        ACCESS:          0 HIT:          0 MISS:          0 MSHR_MERGE:          0
cpu0->cpu0_STLB TRANSLATION  ACCESS:          0 HIT:          0 MISS:          0 MSHR_MERGE:          0
cpu0->cpu0_STLB PREFETCH REQUESTED:          0 ISSUED:          0 USEFUL:          0 USELESS:          0
cpu0->cpu0_STLB AVERAGE MISS LATENCY: 87.97 cycles
cpu0->cpu0_L2C TOTAL        ACCESS:    2906569 HIT:     716616 MISS:    2189953 MSHR_MERGE:          0
cpu0->cpu0_L2C LOAD         ACCESS:    1154899 HIT:     371023 MISS:     783876 MSHR_MERGE:          0
cpu0->cpu0_L2C RFO          ACCESS:      71350 HIT:       2068 MISS:      69282 MSHR_MERGE:          0
cpu0->cpu0_L2C PREFETCH     ACCESS:          0 HIT:          0 MISS:          0 MSHR_MERGE:          0
cpu0->cpu0_L2C WRITE        ACCESS:     556354 HIT:     262650 MISS:     293704 MSHR_MERGE:          0
cpu0->cpu0_L2C TRANSLATION  ACCESS:    1123966 HIT:      80875 MISS:    1043091 MSHR_MERGE:          0
cpu0->cpu0_L2C PREFETCH REQUESTED:          0 ISSUED:          0 USEFUL:          0 USELESS:          0
cpu0->cpu0_L2C AVERAGE MISS LATENCY: 83.62 cycles
cpu0->cpu0_L1I TOTAL        ACCESS:    5560010 HIT:    5560010 MISS:          0 MSHR_MERGE:          0
cpu0->cpu0_L1I LOAD         ACCESS:    5560010 HIT:    5560010 MISS:          0 MSHR_MERGE:          0
cpu0->cpu0_L1I RFO          ACCESS:          0 HIT:          0 MISS:          0 MSHR_MERGE:          0
cpu0->cpu0_L1I PREFETCH     ACCESS:          0 HIT:          0 MISS:          0 MSHR_MERGE:          0
cpu0->cpu0_L1I WRITE        ACCESS:          0 HIT:          0 MISS:          0 MSHR_MERGE:          0
cpu0->cpu0_L1I TRANSLATION  ACCESS:          0 HIT:          0 MISS:          0 MSHR_MERGE:          0
cpu0->cpu0_L1I PREFETCH REQUESTED:          0 ISSUED:          0 USEFUL:          0 USELESS:          0
cpu0->cpu0_L1I AVERAGE MISS LATENCY: - cycles
cpu0->cpu0_L1D TOTAL        ACCESS:    7299175 HIT:    4108703 MISS:    3190472 MSHR_MERGE:     840248
cpu0->cpu0_L1D LOAD         ACCESS:    4988289 HIT:    2998629 MISS:    1989660 MSHR_MERGE:     834761
cpu0->cpu0_L1D RFO          ACCESS:          0 HIT:          0 MISS:          0 MSHR_MERGE:          0
cpu0->cpu0_L1D PREFETCH     ACCESS:          0 HIT:          0 MISS:          0 MSHR_MERGE:          0
cpu0->cpu0_L1D WRITE        ACCESS:    1108563 HIT:    1037181 MISS:      71382 MSHR_MERGE:         23
cpu0->cpu0_L1D TRANSLATION  ACCESS:    1202323 HIT:      72893 MISS:    1129430 MSHR_MERGE:       5464
cpu0->cpu0_L1D PREFETCH REQUESTED:          0 ISSUED:          0 USEFUL:          0 USELESS:          0
cpu0->cpu0_L1D AVERAGE MISS LATENCY: 86.34 cycles
cpu0->cpu0_ITLB TOTAL        ACCESS:    4983324 HIT:    4983324 MISS:          0 MSHR_MERGE:          0
cpu0->cpu0_ITLB LOAD         ACCESS:    4983324 HIT:    4983324 MISS:          0 MSHR_MERGE:          0
cpu0->cpu0_ITLB RFO          ACCESS:          0 HIT:          0 MISS:          0 MSHR_MERGE:          0
cpu0->cpu0_ITLB PREFETCH     ACCESS:          0 HIT:          0 MISS:          0 MSHR_MERGE:          0
cpu0->cpu0_ITLB WRITE        ACCESS:          0 HIT:          0 MISS:          0 MSHR_MERGE:          0
cpu0->cpu0_ITLB TRANSLATION  ACCESS:          0 HIT:          0 MISS:          0 MSHR_MERGE:          0
cpu0->cpu0_ITLB PREFETCH REQUESTED:          0 ISSUED:          0 USEFUL:          0 USELESS:          0
cpu0->cpu0_ITLB AVERAGE MISS LATENCY: - cycles
cpu0->cpu0_DTLB TOTAL        ACCESS:    6051353 HIT:    4354377 MISS:    1696976 MSHR_MERGE:    1005929
cpu0->cpu0_DTLB LOAD         ACCESS:    6051353 HIT:    4354377 MISS:    1696976 MSHR_MERGE:    1005929
cpu0->cpu0_DTLB RFO          ACCESS:          0 HIT:          0 MISS:          0 MSHR_MERGE:          0
cpu0->cpu0_DTLB PREFETCH     ACCESS:          0 HIT:          0 MISS:          0 MSHR_MERGE:          0
cpu0->cpu0_DTLB WRITE        ACCESS:          0 HIT:          0 MISS:          0 MSHR_MERGE:          0
cpu0->cpu0_DTLB TRANSLATION  ACCESS:          0 HIT:          0 MISS:          0 MSHR_MERGE:          0
cpu0->cpu0_DTLB PREFETCH REQUESTED:          0 ISSUED:          0 USEFUL:          0 USELESS:          0
cpu0->cpu0_DTLB AVERAGE MISS LATENCY: 77.23 cycles
cpu0->LLC TOTAL        ACCESS:    2451270 HIT:    1771102 MISS:     680168 MSHR_MERGE:          0
cpu0->LLC LOAD         ACCESS:     783876 HIT:     151102 MISS:     632774 MSHR_MERGE:          0
cpu0->LLC RFO          ACCESS:      69282 HIT:      69275 MISS:          7 MSHR_MERGE:          0
cpu0->LLC PREFETCH     ACCESS:          0 HIT:          0 MISS:          0 MSHR_MERGE:          0
cpu0->LLC WRITE        ACCESS:     555021 HIT:     554265 MISS:        756 MSHR_MERGE:          0
cpu0->LLC TRANSLATION  ACCESS:    1043091 HIT:     996460 MISS:      46631 MSHR_MERGE:          0
cpu0->LLC PREFETCH REQUESTED:          0 ISSUED:          0 USEFUL:          0 USELESS:          0
cpu0->LLC AVERAGE MISS LATENCY: 224.7 cycles

DRAM Statistics

Channel 0 RQ ROW_BUFFER_HIT:        160
  ROW_BUFFER_MISS:     679252
  AVG DBUS CONGESTED CYCLE: 5.869
Channel 0 WQ ROW_BUFFER_HIT:     181963
  ROW_BUFFER_MISS:     373790
  FULL:          0
Channel 0 REFRESHES ISSUED:       8641
