[VMEM] WARNING: physical memory size is smaller than virtual memory size.

*** ChampSim Multicore Out-of-Order Simulator ***
Warmup Instructions: 5000000
Simulation Instructions: 25000000
Number of CPUs: 1
Page size: 4096

Off-chip DRAM Size: 16 GiB Channels: 1 Width: 64-bit Data Rate: 3205 MT/s
Warmup finished CPU 0 instructions: 5000003 cycles: 1797892 cumulative IPC: 2.781 (Simulation time: 00 hr 00 min 23 sec)
Warmup complete CPU 0 instructions: 5000003 cycles: 1797892 cumulative IPC: 2.781 (Simulation time: 00 hr 00 min 23 sec)
Heartbeat CPU 0 instructions: 10000001 cycles: 12785708 heartbeat IPC: 0.7821 cumulative IPC: 0.455 (Simulation time: 00 hr 02 min 01 sec)
Heartbeat CPU 0 instructions: 20000001 cycles: 34294493 heartbeat IPC: 0.4649 cumulative IPC: 0.4616 (Simulation time: 00 hr 05 min 21 sec)
Heartbeat CPU 0 instructions: 30000003 cycles: 55476891 heartbeat IPC: 0.4721 cumulative IPC: 0.4657 (Simulation time: 00 hr 08 min 30 sec)
Simulation finished CPU 0 instructions: 25000000 cycles: 53678999 cumulative IPC: 0.4657 (Simulation time: 00 hr 08 min 30 sec)
Simulation complete CPU 0 instructions: 25000000 cycles: 53678999 cumulative IPC: 0.4657 (Simulation time: 00 hr 08 min 30 sec)

ChampSim completed all CPUs

=== Simulation ===
CPU 0 runs ../../hw2/traces/619.lbm_s-2676B.champsimtrace.xz

Region of Interest Statistics

CPU 0 cumulative IPC: 0.4657 instructions: 25000000 cycles: 53678999
CPU 0 Branch Prediction Accuracy: 95.63% MPKI: 0.7376 Average ROB Occupancy at Mispredict: 211
Branch type MPKI
BRANCH_DIRECT_JUMP: 0
BRANCH_INDIRECT: 0
BRANCH_CONDITIONAL: 0.7376
BRANCH_DIRECT_CALL: 0
BRANCH_INDIRECT_CALL: 0
BRANCH_RETURN: 0

cpu0->cpu0_STLB TOTAL        ACCESS:      31491 HIT:      14402 MISS:      17089 MSHR_MERGE:          0
cpu0->cpu0_STLB LOAD         ACCESS:      31491 HIT:      14402 MISS:      17089 MSHR_MERGE:          0
cpu0->cpu0_STLB RFO          ACCESS:          0 HIT:          0 MISS:          0 MSHR_MERGE:          0
cpu0->cpu0_STLB PREFETCH     ACCESS:          0 HIT:          0 MISS:          0 MSHR_MERGE:          0
cpu0->cpu0_STLB WRITE        ACCESS:          0 HIT:          0 MISS:          0 MSHR_MERGE:          0
cpu0->cpu0_STLB TRANSLATION  ACCESS:          0 HIT:          0 MISS:          0 MSHR_MERGE:          0
cpu0->cpu0_STLB PREFETCH REQUESTED:          0 ISSUED:          0 USEFUL:          0 USELESS:          0
cpu0->cpu0_STLB AVERAGE MISS LATENCY: 903.2 cycles
cpu0->cpu0_L2C TOTAL        ACCESS:    3375673 HIT:     461972 MISS:    2913701 MSHR_MERGE:          0
cpu0->cpu0_L2C LOAD         ACCESS:     273390 HIT:          1 MISS:     273389 MSHR_MERGE:          0
cpu0->cpu0_L2C RFO          ACCESS:    1541498 HIT:      48892 MISS:    1492606 MSHR_MERGE:          0
cpu0->cpu0_L2C PREFETCH     ACCESS:          0 HIT:          0 MISS:          0 MSHR_MERGE:          0
cpu0->cpu0_L2C WRITE        ACCESS:    1541541 HIT:     413079 MISS:    1128462 MSHR_MERGE:          0
cpu0->cpu0_L2C TRANSLATION  ACCESS:      19244 HIT:          0 MISS:      19244 MSHR_MERGE:          0
cpu0->cpu0_L2C PREFETCH REQUESTED:          0 ISSUED:          0 USEFUL:          0 USELESS:          0
cpu0->cpu0_L2C AVERAGE MISS LATENCY: 189.1 cycles
cpu0->cpu0_L1I TOTAL        ACCESS:    3957425 HIT:    3957425 MISS:          0 MSHR_MERGE:          0
cpu0->cpu0_L1I LOAD         ACCESS:    3957425 HIT:    3957425 MISS:          0 MSHR_MERGE:          0
cpu0->cpu0_L1I RFO          ACCESS:          0 HIT:          0 MISS:          0 MSHR_MERGE:          0
cpu0->cpu0_L1I PREFETCH     ACCESS:          0 HIT:          0 MISS:          0 MSHR_MERGE:          0
cpu0->cpu0_L1I WRITE        ACCESS:          0 HIT:          0 MISS:          0 MSHR_MERGE:          0
cpu0->cpu0_L1I TRANSLATION  ACCESS:          0 HIT:          0 MISS:          0 MSHR_MERGE:          0
cpu0->cpu0_L1I PREFETCH REQUESTED:          0 ISSUED:          0 USEFUL:          0 USELESS:          0
cpu0->cpu0_L1I AVERAGE MISS LATENCY: - cycles
cpu0->cpu0_L1D TOTAL        ACCESS:    6082557 HIT:    3812625 MISS:    2269932 MSHR_MERGE:     435760
cpu0->cpu0_L1D LOAD         ACCESS:    1584336 HIT:     950623 MISS:     633713 MSHR_MERGE:     360323
cpu0->cpu0_L1D RFO          ACCESS:          0 HIT:          0 MISS:          0 MSHR_MERGE:          0
cpu0->cpu0_L1D PREFETCH     ACCESS:          0 HIT:          0 MISS:          0 MSHR_MERGE:          0
cpu0->cpu0_L1D WRITE        ACCESS:    4464025 HIT:    2847050 MISS:    1616975 MSHR_MERGE:      75437
cpu0->cpu0_L1D TRANSLATION  ACCESS:      34196 HIT:      14952 MISS:      19244 MSHR_MERGE:          0
cpu0->cpu0_L1D PREFETCH REQUESTED:          0 ISSUED:          0 USEFUL:          0 USELESS:          0
cpu0->cpu0_L1D AVERAGE MISS LATENCY: 307.5 cycles
cpu0->cpu0_ITLB TOTAL        ACCESS:    2938364 HIT:    2938364 MISS:          0 MSHR_MERGE:          0
cpu0->cpu0_ITLB LOAD         ACCESS:    2938364 HIT:    2938364 MISS:          0 MSHR_MERGE:          0
cpu0->cpu0_ITLB RFO          ACCESS:          0 HIT:          0 MISS:          0 MSHR_MERGE:          0
cpu0->cpu0_ITLB PREFETCH     ACCESS:          0 HIT:          0 MISS:          0 MSHR_MERGE:          0
cpu0->cpu0_ITLB WRITE        ACCESS:          0 HIT:          0 MISS:          0 MSHR_MERGE:          0
cpu0->cpu0_ITLB TRANSLATION  ACCESS:          0 HIT:          0 MISS:          0 MSHR_MERGE:          0
cpu0->cpu0_ITLB PREFETCH REQUESTED:          0 ISSUED:          0 USEFUL:          0 USELESS:          0
cpu0->cpu0_ITLB AVERAGE MISS LATENCY: - cycles
cpu0->cpu0_DTLB TOTAL        ACCESS:    5698840 HIT:    5604662 MISS:      94178 MSHR_MERGE:      62687
cpu0->cpu0_DTLB LOAD         ACCESS:    5698840 HIT:    5604662 MISS:      94178 MSHR_MERGE:      62687
cpu0->cpu0_DTLB RFO          ACCESS:          0 HIT:          0 MISS:          0 MSHR_MERGE:          0
cpu0->cpu0_DTLB PREFETCH     ACCESS:          0 HIT:          0 MISS:          0 MSHR_MERGE:          0
cpu0->cpu0_DTLB WRITE        ACCESS:          0 HIT:          0 MISS:          0 MSHR_MERGE:          0
cpu0->cpu0_DTLB TRANSLATION  ACCESS:          0 HIT:          0 MISS:          0 MSHR_MERGE:          0
cpu0->cpu0_DTLB PREFETCH REQUESTED:          0 ISSUED:          0 USEFUL:          0 USELESS:          0
cpu0->cpu0_DTLB AVERAGE MISS LATENCY: 495.7 cycles
cpu0->LLC TOTAL        ACCESS:    3277647 HIT:    2142658 MISS:    1134989 MSHR_MERGE:          0
cpu0->LLC LOAD         ACCESS:     273389 HIT:         25 MISS:     273364 MSHR_MERGE:          0
cpu0->LLC RFO          ACCESS:    1492604 HIT:     675931 MISS:     816673 MSHR_MERGE:          0
cpu0->LLC PREFETCH     ACCESS:          0 HIT:          0 MISS:          0 MSHR_MERGE:          0
cpu0->LLC WRITE        ACCESS:    1492410 HIT:    1466702 MISS:      25708 MSHR_MERGE:          0
cpu0->LLC TRANSLATION  ACCESS:      19244 HIT:          0 MISS:      19244 MSHR_MERGE:          0
cpu0->LLC PREFETCH REQUESTED:          0 ISSUED:          0 USEFUL:          0 USELESS:          0
cpu0->LLC AVERAGE MISS LATENCY: 456.8 cycles

DRAM Statistics

Channel 0 RQ ROW_BUFFER_HIT:      54232
  ROW_BUFFER_MISS:    1055049
  AVG DBUS CONGESTED CYCLE: 7.186
Channel 0 WQ ROW_BUFFER_HIT:     134076
  ROW_BUFFER_MISS:     690576
  FULL:          0
Channel 0 REFRESHES ISSUED:       4474
