[VMEM] WARNING: physical memory size is smaller than virtual memory size.

*** ChampSim Multicore Out-of-Order Simulator ***
Warmup Instructions: 5000000
Simulation Instructions: 25000000
Number of CPUs: 1
Page size: 4096

Off-chip DRAM Size: 16 GiB Channels: 1 Width: 64-bit Data Rate: 3205 MT/s
Warmup finished CPU 0 instructions: 5000003 cycles: 3487631 cumulative IPC: 1.434 (Simulation time: 00 hr 00 min 39 sec)
Warmup complete CPU 0 instructions: 5000003 cycles: 3487631 cumulative IPC: 1.434 (Simulation time: 00 hr 00 min 39 sec)
Heartbeat CPU 0 instructions: 10000004 cycles: 21548481 heartbeat IPC: 0.4641 cumulative IPC: 0.2768 (Simulation time: 00 hr 02 min 22 sec)
Heartbeat CPU 0 instructions: 20000007 cycles: 58434217 heartbeat IPC: 0.2711 cumulative IPC: 0.273 (Simulation time: 00 hr 06 min 01 sec)
Simulation finished CPU 0 instructions: 25000001 cycles: 89545759 cumulative IPC: 0.2792 (Simulation time: 00 hr 09 min 19 sec)
Simulation complete CPU 0 instructions: 25000001 cycles: 89545759 cumulative IPC: 0.2792 (Simulation time: 00 hr 09 min 19 sec)

ChampSim completed all CPUs

=== Simulation ===
CPU 0 runs ../../hw2/traces/620.omnetpp_s-141B.champsimtrace.xz

Region of Interest Statistics

CPU 0 cumulative IPC: 0.2792 instructions: 25000001 cycles: 89545759
CPU 0 Branch Prediction Accuracy: 92.89% MPKI: 14.98 Average ROB Occupancy at Mispredict: 42.89
Branch type MPKI
BRANCH_DIRECT_JUMP: 0.8414
BRANCH_INDIRECT: 0.3648
BRANCH_CONDITIONAL: 12.48
BRANCH_DIRECT_CALL: 0.00052
BRANCH_INDIRECT_CALL: 0.8609
BRANCH_RETURN: 0.4358

cpu0->cpu0_STLB TOTAL        ACCESS:     562914 HIT:     442438 MISS:     120476 MSHR_MERGE:          0
cpu0->cpu0_STLB LOAD         ACCESS:     562914 HIT:     442438 MISS:     120476 MSHR_MERGE:          0
cpu0->cpu0_STLB RFO          ACCESS:          0 HIT:          0 MISS:          0 MSHR_MERGE:          0
cpu0->cpu0_STLB PREFETCH     ACCESS:          0 HIT:          0 MISS:          0 MSHR_MERGE:          0
cpu0->cpu0_STLB WRITE        ACCESS:          0 HIT:          0 MISS:          0 MSHR_MERGE:          0
cpu0->cpu0_STLB TRANSLATION  ACCESS:          0 HIT:          0 MISS:          0 MSHR_MERGE:          0
cpu0->cpu0_STLB PREFETCH REQUESTED:          0 ISSUED:          0 USEFUL:          0 USELESS:          0
cpu0->cpu0_STLB AVERAGE MISS LATENCY: 354.2 cycles
cpu0->cpu0_L2C TOTAL        ACCESS:    1017998 HIT:     349858 MISS:     668140 MSHR_MERGE:          0
cpu0->cpu0_L2C LOAD         ACCESS:     451689 HIT:     113499 MISS:     338190 MSHR_MERGE:          0
cpu0->cpu0_L2C RFO          ACCESS:      58104 HIT:      13982 MISS:      44122 MSHR_MERGE:          0
cpu0->cpu0_L2C PREFETCH     ACCESS:          0 HIT:          0 MISS:          0 MSHR_MERGE:          0
cpu0->cpu0_L2C WRITE        ACCESS:     240273 HIT:     151456 MISS:      88817 MSHR_MERGE:          0
cpu0->cpu0_L2C TRANSLATION  ACCESS:     267932 HIT:      70921 MISS:     197011 MSHR_MERGE:          0
cpu0->cpu0_L2C PREFETCH REQUESTED:          0 ISSUED:          0 USEFUL:          0 USELESS:          0
cpu0->cpu0_L2C AVERAGE MISS LATENCY: 129.6 cycles
cpu0->cpu0_L1I TOTAL        ACCESS:    3342742 HIT:    3324565 MISS:      18177 MSHR_MERGE:       4312
cpu0->cpu0_L1I LOAD         ACCESS:    3342742 HIT:    3324565 MISS:      18177 MSHR_MERGE:       4312
cpu0->cpu0_L1I RFO          ACCESS:          0 HIT:          0 MISS:          0 MSHR_MERGE:          0
cpu0->cpu0_L1I PREFETCH     ACCESS:          0 HIT:          0 MISS:          0 MSHR_MERGE:          0
cpu0->cpu0_L1I WRITE        ACCESS:          0 HIT:          0 MISS:          0 MSHR_MERGE:          0
cpu0->cpu0_L1I TRANSLATION  ACCESS:          0 HIT:          0 MISS:          0 MSHR_MERGE:          0
cpu0->cpu0_L1I PREFETCH REQUESTED:          0 ISSUED:          0 USEFUL:          0 USELESS:          0
cpu0->cpu0_L1I AVERAGE MISS LATENCY: 11.82 cycles
cpu0->cpu0_L1D TOTAL        ACCESS:   10260920 HIT:    9249693 MISS:    1011227 MSHR_MERGE:     247367
cpu0->cpu0_L1D LOAD         ACCESS:    5443449 HIT:    4879998 MISS:     563451 MSHR_MERGE:     125627
cpu0->cpu0_L1D RFO          ACCESS:          0 HIT:          0 MISS:          0 MSHR_MERGE:          0
cpu0->cpu0_L1D PREFETCH     ACCESS:          0 HIT:          0 MISS:          0 MSHR_MERGE:          0
cpu0->cpu0_L1D WRITE        ACCESS:    4527310 HIT:    4348143 MISS:     179167 MSHR_MERGE:     121063
cpu0->cpu0_L1D TRANSLATION  ACCESS:     290161 HIT:      21552 MISS:     268609 MSHR_MERGE:        677
cpu0->cpu0_L1D PREFETCH REQUESTED:          0 ISSUED:          0 USEFUL:          0 USELESS:          0
cpu0->cpu0_L1D AVERAGE MISS LATENCY: 121.6 cycles
cpu0->cpu0_ITLB TOTAL        ACCESS:    2948748 HIT:    2871047 MISS:      77701 MSHR_MERGE:      37556
cpu0->cpu0_ITLB LOAD         ACCESS:    2948748 HIT:    2871047 MISS:      77701 MSHR_MERGE:      37556
cpu0->cpu0_ITLB RFO          ACCESS:          0 HIT:          0 MISS:          0 MSHR_MERGE:          0
cpu0->cpu0_ITLB PREFETCH     ACCESS:          0 HIT:          0 MISS:          0 MSHR_MERGE:          0
cpu0->cpu0_ITLB WRITE        ACCESS:          0 HIT:          0 MISS:          0 MSHR_MERGE:          0
cpu0->cpu0_ITLB TRANSLATION  ACCESS:          0 HIT:          0 MISS:          0 MSHR_MERGE:          0
cpu0->cpu0_ITLB PREFETCH REQUESTED:          0 ISSUED:          0 USEFUL:          0 USELESS:          0
cpu0->cpu0_ITLB AVERAGE MISS LATENCY: 7.163 cycles
cpu0->cpu0_DTLB TOTAL        ACCESS:    9478848 HIT:    8869120 MISS:     609728 MSHR_MERGE:      86959
cpu0->cpu0_DTLB LOAD         ACCESS:    9478848 HIT:    8869120 MISS:     609728 MSHR_MERGE:      86959
cpu0->cpu0_DTLB RFO          ACCESS:          0 HIT:          0 MISS:          0 MSHR_MERGE:          0
cpu0->cpu0_DTLB PREFETCH     ACCESS:          0 HIT:          0 MISS:          0 MSHR_MERGE:          0
cpu0->cpu0_DTLB WRITE        ACCESS:          0 HIT:          0 MISS:          0 MSHR_MERGE:          0
cpu0->cpu0_DTLB TRANSLATION  ACCESS:          0 HIT:          0 MISS:          0 MSHR_MERGE:          0
cpu0->cpu0_DTLB PREFETCH REQUESTED:          0 ISSUED:          0 USEFUL:          0 USELESS:          0
cpu0->cpu0_DTLB AVERAGE MISS LATENCY: 86.69 cycles
cpu0->LLC TOTAL        ACCESS:     756580 HIT:     337590 MISS:     418990 MSHR_MERGE:          0
cpu0->LLC LOAD         ACCESS:     338190 HIT:      96882 MISS:     241308 MSHR_MERGE:          0
cpu0->LLC RFO          ACCESS:      44122 HIT:      15874 MISS:      28248 MSHR_MERGE:          0
cpu0->LLC PREFETCH     ACCESS:          0 HIT:          0 MISS:          0 MSHR_MERGE:          0
cpu0->LLC WRITE        ACCESS:     177257 HIT:     165245 MISS:      12012 MSHR_MERGE:          0
cpu0->LLC TRANSLATION  ACCESS:     197011 HIT:      59589 MISS:     137422 MSHR_MERGE:          0
cpu0->LLC PREFETCH REQUESTED:          0 ISSUED:          0 USEFUL:          0 USELESS:          0
cpu0->LLC AVERAGE MISS LATENCY: 184.4 cycles

DRAM Statistics

Channel 0 RQ ROW_BUFFER_HIT:       1465
  ROW_BUFFER_MISS:     405508
  AVG DBUS CONGESTED CYCLE: 19.96
Channel 0 WQ ROW_BUFFER_HIT:      43618
  ROW_BUFFER_MISS:      86833
  FULL:          0
Channel 0 REFRESHES ISSUED:       7462
