[VMEM] WARNING: physical memory size is smaller than virtual memory size.

*** ChampSim Multicore Out-of-Order Simulator ***
Warmup Instructions: 5000000
Simulation Instructions: 25000000
Number of CPUs: 1
Page size: 4096

Off-chip DRAM Size: 16 GiB Channels: 1 Width: 64-bit Data Rate: 3205 MT/s
Warmup finished CPU 0 instructions: 5000000 cycles: 1449659 cumulative IPC: 3.449 (Simulation time: 00 hr 00 min 18 sec)
Warmup complete CPU 0 instructions: 5000000 cycles: 1449659 cumulative IPC: 3.449 (Simulation time: 00 hr 00 min 18 sec)
Heartbeat CPU 0 instructions: 10000001 cycles: 6544714 heartbeat IPC: 1.528 cumulative IPC: 0.9813 (Simulation time: 00 hr 00 min 57 sec)
Heartbeat CPU 0 instructions: 20000003 cycles: 16967913 heartbeat IPC: 0.9594 cumulative IPC: 0.9666 (Simulation time: 00 hr 02 min 11 sec)
Simulation finished CPU 0 instructions: 25000001 cycles: 25834940 cumulative IPC: 0.9677 (Simulation time: 00 hr 03 min 27 sec)
Simulation complete CPU 0 instructions: 25000001 cycles: 25834940 cumulative IPC: 0.9677 (Simulation time: 00 hr 03 min 27 sec)

ChampSim completed all CPUs

=== Simulation ===
CPU 0 runs ../../hw2/traces/623.xalancbmk_s-165B.champsimtrace.xz

Region of Interest Statistics

CPU 0 cumulative IPC: 0.9677 instructions: 25000001 cycles: 25834940
CPU 0 Branch Prediction Accuracy: 96.52% MPKI: 9.701 Average ROB Occupancy at Mispredict: 59.38
Branch type MPKI
BRANCH_DIRECT_JUMP: 0
BRANCH_INDIRECT: 0
BRANCH_CONDITIONAL: 9.701
BRANCH_DIRECT_CALL: 0
BRANCH_INDIRECT_CALL: 0
BRANCH_RETURN: 0

cpu0->cpu0_STLB TOTAL        ACCESS:       8836 HIT:       8807 MISS:         29 MSHR_MERGE:          0
cpu0->cpu0_STLB LOAD         ACCESS:       8836 HIT:       8807 MISS:         29 MSHR_MERGE:          0
cpu0->cpu0_STLB RFO          ACCESS:          0 HIT:          0 MISS:          0 MSHR_MERGE:          0
cpu0->cpu0_STLB PREFETCH     ACCESS:          0 HIT:          0 MISS:          0 MSHR_MERGE:          0
cpu0->cpu0_STLB WRITE        ACCESS:          0 HIT:          0 MISS:          0 MSHR_MERGE:          0
cpu0->cpu0_STLB TRANSLATION  ACCESS:          0 HIT:          0 MISS:          0 MSHR_MERGE:          0
cpu0->cpu0_STLB PREFETCH REQUESTED:          0 ISSUED:          0 USEFUL:          0 USELESS:          0
cpu0->cpu0_STLB AVERAGE MISS LATENCY: 787.9 cycles
cpu0->cpu0_L2C TOTAL        ACCESS:     475743 HIT:      97110 MISS:     378633 MSHR_MERGE:          0
cpu0->cpu0_L2C LOAD         ACCESS:     475333 HIT:      96841 MISS:     378492 MSHR_MERGE:          0
cpu0->cpu0_L2C RFO          ACCESS:        146 HIT:         56 MISS:         90 MSHR_MERGE:          0
cpu0->cpu0_L2C PREFETCH     ACCESS:          0 HIT:          0 MISS:          0 MSHR_MERGE:          0
cpu0->cpu0_L2C WRITE        ACCESS:        213 HIT:        213 MISS:          0 MSHR_MERGE:          0
cpu0->cpu0_L2C TRANSLATION  ACCESS:         51 HIT:          0 MISS:         51 MSHR_MERGE:          0
cpu0->cpu0_L2C PREFETCH REQUESTED:          0 ISSUED:          0 USEFUL:          0 USELESS:          0
cpu0->cpu0_L2C AVERAGE MISS LATENCY: 54.21 cycles
cpu0->cpu0_L1I TOTAL        ACCESS:        830 HIT:        830 MISS:          0 MSHR_MERGE:          0
cpu0->cpu0_L1I LOAD         ACCESS:        830 HIT:        830 MISS:          0 MSHR_MERGE:          0
cpu0->cpu0_L1I RFO          ACCESS:          0 HIT:          0 MISS:          0 MSHR_MERGE:          0
cpu0->cpu0_L1I PREFETCH     ACCESS:          0 HIT:          0 MISS:          0 MSHR_MERGE:          0
cpu0->cpu0_L1I WRITE        ACCESS:          0 HIT:          0 MISS:          0 MSHR_MERGE:          0
cpu0->cpu0_L1I TRANSLATION  ACCESS:          0 HIT:          0 MISS:          0 MSHR_MERGE:          0
cpu0->cpu0_L1I PREFETCH REQUESTED:          0 ISSUED:          0 USEFUL:          0 USELESS:          0
cpu0->cpu0_L1I AVERAGE MISS LATENCY: - cycles
cpu0->cpu0_L1D TOTAL        ACCESS:    7030246 HIT:    5511650 MISS:    1518596 MSHR_MERGE:    1043066
cpu0->cpu0_L1D LOAD         ACCESS:    6701992 HIT:    5184145 MISS:    1517847 MSHR_MERGE:    1042514
cpu0->cpu0_L1D RFO          ACCESS:          0 HIT:          0 MISS:          0 MSHR_MERGE:          0
cpu0->cpu0_L1D PREFETCH     ACCESS:          0 HIT:          0 MISS:          0 MSHR_MERGE:          0
cpu0->cpu0_L1D WRITE        ACCESS:     328196 HIT:     327500 MISS:        696 MSHR_MERGE:        550
cpu0->cpu0_L1D TRANSLATION  ACCESS:         58 HIT:          5 MISS:         53 MSHR_MERGE:          2
cpu0->cpu0_L1D PREFETCH REQUESTED:          0 ISSUED:          0 USEFUL:          0 USELESS:          0
cpu0->cpu0_L1D AVERAGE MISS LATENCY: 51.97 cycles
cpu0->cpu0_ITLB TOTAL        ACCESS:        732 HIT:        732 MISS:          0 MSHR_MERGE:          0
cpu0->cpu0_ITLB LOAD         ACCESS:        732 HIT:        732 MISS:          0 MSHR_MERGE:          0
cpu0->cpu0_ITLB RFO          ACCESS:          0 HIT:          0 MISS:          0 MSHR_MERGE:          0
cpu0->cpu0_ITLB PREFETCH     ACCESS:          0 HIT:          0 MISS:          0 MSHR_MERGE:          0
cpu0->cpu0_ITLB WRITE        ACCESS:          0 HIT:          0 MISS:          0 MSHR_MERGE:          0
cpu0->cpu0_ITLB TRANSLATION  ACCESS:          0 HIT:          0 MISS:          0 MSHR_MERGE:          0
cpu0->cpu0_ITLB PREFETCH REQUESTED:          0 ISSUED:          0 USEFUL:          0 USELESS:          0
cpu0->cpu0_ITLB AVERAGE MISS LATENCY: - cycles
cpu0->cpu0_DTLB TOTAL        ACCESS:    6975361 HIT:    6954328 MISS:      21033 MSHR_MERGE:      12197
cpu0->cpu0_DTLB LOAD         ACCESS:    6975361 HIT:    6954328 MISS:      21033 MSHR_MERGE:      12197
cpu0->cpu0_DTLB RFO          ACCESS:          0 HIT:          0 MISS:          0 MSHR_MERGE:          0
cpu0->cpu0_DTLB PREFETCH     ACCESS:          0 HIT:          0 MISS:          0 MSHR_MERGE:          0
cpu0->cpu0_DTLB WRITE        ACCESS:          0 HIT:          0 MISS:          0 MSHR_MERGE:          0
cpu0->cpu0_DTLB TRANSLATION  ACCESS:          0 HIT:          0 MISS:          0 MSHR_MERGE:          0
cpu0->cpu0_DTLB PREFETCH REQUESTED:          0 ISSUED:          0 USEFUL:          0 USELESS:          0
cpu0->cpu0_DTLB AVERAGE MISS LATENCY: 7.589 cycles
cpu0->LLC TOTAL        ACCESS:     378748 HIT:     282275 MISS:      96473 MSHR_MERGE:          0
cpu0->LLC LOAD         ACCESS:     378492 HIT:     282154 MISS:      96338 MSHR_MERGE:          0
cpu0->LLC RFO          ACCESS:         90 HIT:          0 MISS:         90 MSHR_MERGE:          0
cpu0->LLC PREFETCH     ACCESS:          0 HIT:          0 MISS:          0 MSHR_MERGE:          0
cpu0->LLC WRITE        ACCESS:        115 HIT:        115 MISS:          0 MSHR_MERGE:          0
cpu0->LLC TRANSLATION  ACCESS:         51 HIT:          6 MISS:         45 MSHR_MERGE:          0
cpu0->LLC PREFETCH REQUESTED:          0 ISSUED:          0 USEFUL:          0 USELESS:          0
cpu0->LLC AVERAGE MISS LATENCY: 152.9 cycles

DRAM Statistics

Channel 0 RQ ROW_BUFFER_HIT:      20645
  ROW_BUFFER_MISS:      75828
  AVG DBUS CONGESTED CYCLE: 3.562
Channel 0 WQ ROW_BUFFER_HIT:         31
  ROW_BUFFER_MISS:         31
  FULL:          0
Channel 0 REFRESHES ISSUED:       2153
