[VMEM] WARNING: physical memory size is smaller than virtual memory size.

*** ChampSim Multicore Out-of-Order Simulator ***
Warmup Instructions: 5000000
Simulation Instructions: 25000000
Number of CPUs: 1
Page size: 4096

Off-chip DRAM Size: 16 GiB Channels: 1 Width: 64-bit Data Rate: 3205 MT/s
Warmup finished CPU 0 instructions: 5000002 cycles: 1277111 cumulative IPC: 3.915 (Simulation time: 00 hr 00 min 21 sec)
Warmup complete CPU 0 instructions: 5000002 cycles: 1277111 cumulative IPC: 3.915 (Simulation time: 00 hr 00 min 21 sec)
Heartbeat CPU 0 instructions: 10000000 cycles: 3229368 heartbeat IPC: 3.097 cumulative IPC: 2.561 (Simulation time: 00 hr 00 min 42 sec)
Heartbeat CPU 0 instructions: 20000002 cycles: 6919004 heartbeat IPC: 2.71 cumulative IPC: 2.659 (Simulation time: 00 hr 01 min 27 sec)
Heartbeat CPU 0 instructions: 30000003 cycles: 10600341 heartbeat IPC: 2.716 cumulative IPC: 2.681 (Simulation time: 00 hr 02 min 12 sec)
Simulation finished CPU 0 instructions: 25000001 cycles: 9323230 cumulative IPC: 2.681 (Simulation time: 00 hr 02 min 12 sec)
Simulation complete CPU 0 instructions: 25000001 cycles: 9323230 cumulative IPC: 2.681 (Simulation time: 00 hr 02 min 12 sec)

ChampSim completed all CPUs

=== Simulation ===
CPU 0 runs ../../hw2/traces/625.x264_s-12B.champsimtrace.xz

Region of Interest Statistics

CPU 0 cumulative IPC: 2.681 instructions: 25000001 cycles: 9323230
CPU 0 Branch Prediction Accuracy: 88.59% MPKI: 4.432 Average ROB Occupancy at Mispredict: 87.76
Branch type MPKI
BRANCH_DIRECT_JUMP: 0.00068
BRANCH_INDIRECT: 0.00016
BRANCH_CONDITIONAL: 4.425
BRANCH_DIRECT_CALL: 0.00028
BRANCH_INDIRECT_CALL: 0.0046
BRANCH_RETURN: 0.00116

cpu0->cpu0_STLB TOTAL        ACCESS:       2714 HIT:       2580 MISS:        134 MSHR_MERGE:          0
cpu0->cpu0_STLB LOAD         ACCESS:       2714 HIT:       2580 MISS:        134 MSHR_MERGE:          0
cpu0->cpu0_STLB RFO          ACCESS:          0 HIT:          0 MISS:          0 MSHR_MERGE:          0
cpu0->cpu0_STLB PREFETCH     ACCESS:          0 HIT:          0 MISS:          0 MSHR_MERGE:          0
cpu0->cpu0_STLB WRITE        ACCESS:          0 HIT:          0 MISS:          0 MSHR_MERGE:          0
cpu0->cpu0_STLB TRANSLATION  ACCESS:          0 HIT:          0 MISS:          0 MSHR_MERGE:          0
cpu0->cpu0_STLB PREFETCH REQUESTED:          0 ISSUED:          0 USEFUL:          0 USELESS:          0
cpu0->cpu0_STLB AVERAGE MISS LATENCY: 723.4 cycles
cpu0->cpu0_L2C TOTAL        ACCESS:      11999 HIT:       4638 MISS:       7361 MSHR_MERGE:          0
cpu0->cpu0_L2C LOAD         ACCESS:      11348 HIT:       4469 MISS:       6879 MSHR_MERGE:          0
cpu0->cpu0_L2C RFO          ACCESS:        245 HIT:          3 MISS:        242 MSHR_MERGE:          0
cpu0->cpu0_L2C PREFETCH     ACCESS:          0 HIT:          0 MISS:          0 MSHR_MERGE:          0
cpu0->cpu0_L2C WRITE        ACCESS:        189 HIT:        162 MISS:         27 MSHR_MERGE:          0
cpu0->cpu0_L2C TRANSLATION  ACCESS:        217 HIT:          4 MISS:        213 MSHR_MERGE:          0
cpu0->cpu0_L2C PREFETCH REQUESTED:          0 ISSUED:          0 USEFUL:          0 USELESS:          0
cpu0->cpu0_L2C AVERAGE MISS LATENCY: 150.8 cycles
cpu0->cpu0_L1I TOTAL        ACCESS:    2109792 HIT:    2109565 MISS:        227 MSHR_MERGE:         68
cpu0->cpu0_L1I LOAD         ACCESS:    2109792 HIT:    2109565 MISS:        227 MSHR_MERGE:         68
cpu0->cpu0_L1I RFO          ACCESS:          0 HIT:          0 MISS:          0 MSHR_MERGE:          0
cpu0->cpu0_L1I PREFETCH     ACCESS:          0 HIT:          0 MISS:          0 MSHR_MERGE:          0
cpu0->cpu0_L1I WRITE        ACCESS:          0 HIT:          0 MISS:          0 MSHR_MERGE:          0
cpu0->cpu0_L1I TRANSLATION  ACCESS:          0 HIT:          0 MISS:          0 MSHR_MERGE:          0
cpu0->cpu0_L1I PREFETCH REQUESTED:          0 ISSUED:          0 USEFUL:          0 USELESS:          0
cpu0->cpu0_L1I AVERAGE MISS LATENCY: 214.8 cycles
cpu0->cpu0_L1D TOTAL        ACCESS:    5051348 HIT:    5015101 MISS:      36247 MSHR_MERGE:      24596
cpu0->cpu0_L1D LOAD         ACCESS:    3528061 HIT:    3492452 MISS:      35609 MSHR_MERGE:      24420
cpu0->cpu0_L1D RFO          ACCESS:          0 HIT:          0 MISS:          0 MSHR_MERGE:          0
cpu0->cpu0_L1D PREFETCH     ACCESS:          0 HIT:          0 MISS:          0 MSHR_MERGE:          0
cpu0->cpu0_L1D WRITE        ACCESS:    1523019 HIT:    1522598 MISS:        421 MSHR_MERGE:        176
cpu0->cpu0_L1D TRANSLATION  ACCESS:        268 HIT:         51 MISS:        217 MSHR_MERGE:          0
cpu0->cpu0_L1D PREFETCH REQUESTED:          0 ISSUED:          0 USEFUL:          0 USELESS:          0
cpu0->cpu0_L1D AVERAGE MISS LATENCY: 101.1 cycles
cpu0->cpu0_ITLB TOTAL        ACCESS:    1932053 HIT:    1932015 MISS:         38 MSHR_MERGE:         28
cpu0->cpu0_ITLB LOAD         ACCESS:    1932053 HIT:    1932015 MISS:         38 MSHR_MERGE:         28
cpu0->cpu0_ITLB RFO          ACCESS:          0 HIT:          0 MISS:          0 MSHR_MERGE:          0
cpu0->cpu0_ITLB PREFETCH     ACCESS:          0 HIT:          0 MISS:          0 MSHR_MERGE:          0
cpu0->cpu0_ITLB WRITE        ACCESS:          0 HIT:          0 MISS:          0 MSHR_MERGE:          0
cpu0->cpu0_ITLB TRANSLATION  ACCESS:          0 HIT:          0 MISS:          0 MSHR_MERGE:          0
cpu0->cpu0_ITLB PREFETCH REQUESTED:          0 ISSUED:          0 USEFUL:          0 USELESS:          0
cpu0->cpu0_ITLB AVERAGE MISS LATENCY: 731 cycles
cpu0->cpu0_DTLB TOTAL        ACCESS:    4789635 HIT:    4785006 MISS:       4629 MSHR_MERGE:       1925
cpu0->cpu0_DTLB LOAD         ACCESS:    4789635 HIT:    4785006 MISS:       4629 MSHR_MERGE:       1925
cpu0->cpu0_DTLB RFO          ACCESS:          0 HIT:          0 MISS:          0 MSHR_MERGE:          0
cpu0->cpu0_DTLB PREFETCH     ACCESS:          0 HIT:          0 MISS:          0 MSHR_MERGE:          0
cpu0->cpu0_DTLB WRITE        ACCESS:          0 HIT:          0 MISS:          0 MSHR_MERGE:          0
cpu0->cpu0_DTLB TRANSLATION  ACCESS:          0 HIT:          0 MISS:          0 MSHR_MERGE:          0
cpu0->cpu0_DTLB PREFETCH REQUESTED:          0 ISSUED:          0 USEFUL:          0 USELESS:          0
cpu0->cpu0_DTLB AVERAGE MISS LATENCY: 38.21 cycles
cpu0->LLC TOTAL        ACCESS:       7368 HIT:       1197 MISS:       6171 MSHR_MERGE:          0
cpu0->LLC LOAD         ACCESS:       6879 HIT:       1163 MISS:       5716 MSHR_MERGE:          0
cpu0->LLC RFO          ACCESS:        242 HIT:          0 MISS:        242 MSHR_MERGE:          0
cpu0->LLC PREFETCH     ACCESS:          0 HIT:          0 MISS:          0 MSHR_MERGE:          0
cpu0->LLC WRITE        ACCESS:         34 HIT:         34 MISS:          0 MSHR_MERGE:          0
cpu0->LLC TRANSLATION  ACCESS:        213 HIT:          0 MISS:        213 MSHR_MERGE:          0
cpu0->LLC PREFETCH REQUESTED:          0 ISSUED:          0 USEFUL:          0 USELESS:          0
cpu0->LLC AVERAGE MISS LATENCY: 161 cycles

DRAM Statistics

Channel 0 RQ ROW_BUFFER_HIT:        167
  ROW_BUFFER_MISS:       6004
  AVG DBUS CONGESTED CYCLE: 2.779
Channel 0 WQ ROW_BUFFER_HIT:          0
  ROW_BUFFER_MISS:          0
  FULL:          0
Channel 0 REFRESHES ISSUED:        777
