[VMEM] WARNING: physical memory size is smaller than virtual memory size.

*** ChampSim Multicore Out-of-Order Simulator ***
Warmup Instructions: 5000000
Simulation Instructions: 25000000
Number of CPUs: 1
Page size: 4096

Off-chip DRAM Size: 16 GiB Channels: 1 Width: 64-bit Data Rate: 3205 MT/s
Warmup finished CPU 0 instructions: 5000002 cycles: 1482296 cumulative IPC: 3.373 (Simulation time: 00 hr 00 min 21 sec)
Warmup complete CPU 0 instructions: 5000002 cycles: 1482296 cumulative IPC: 3.373 (Simulation time: 00 hr 00 min 21 sec)
Heartbeat CPU 0 instructions: 10000000 cycles: 6134883 heartbeat IPC: 1.63 cumulative IPC: 1.075 (Simulation time: 00 hr 00 min 59 sec)
Heartbeat CPU 0 instructions: 20000000 cycles: 12996415 heartbeat IPC: 1.457 cumulative IPC: 1.303 (Simulation time: 00 hr 02 min 07 sec)
Heartbeat CPU 0 instructions: 30000002 cycles: 22420054 heartbeat IPC: 1.061 cumulative IPC: 1.194 (Simulation time: 00 hr 03 min 28 sec)
Simulation finished CPU 0 instructions: 25000000 cycles: 20937758 cumulative IPC: 1.194 (Simulation time: 00 hr 03 min 28 sec)
Simulation complete CPU 0 instructions: 25000000 cycles: 20937758 cumulative IPC: 1.194 (Simulation time: 00 hr 03 min 28 sec)

ChampSim completed all CPUs

=== Simulation ===
CPU 0 runs ../../hw2/traces/627.cam4_s-490B.champsimtrace.xz

Region of Interest Statistics

CPU 0 cumulative IPC: 1.194 instructions: 25000000 cycles: 20937758
CPU 0 Branch Prediction Accuracy: 88.99% MPKI: 10.5 Average ROB Occupancy at Mispredict: 31.27
Branch type MPKI
BRANCH_DIRECT_JUMP: 0.00488
BRANCH_INDIRECT: 0
BRANCH_CONDITIONAL: 10.5
BRANCH_DIRECT_CALL: 0.00032
BRANCH_INDIRECT_CALL: 0
BRANCH_RETURN: 0.00044

cpu0->cpu0_STLB TOTAL        ACCESS:       8024 HIT:       7373 MISS:        651 MSHR_MERGE:          0
cpu0->cpu0_STLB LOAD         ACCESS:       8024 HIT:       7373 MISS:        651 MSHR_MERGE:          0
cpu0->cpu0_STLB RFO          ACCESS:          0 HIT:          0 MISS:          0 MSHR_MERGE:          0
cpu0->cpu0_STLB PREFETCH     ACCESS:          0 HIT:          0 MISS:          0 MSHR_MERGE:          0
cpu0->cpu0_STLB WRITE        ACCESS:          0 HIT:          0 MISS:          0 MSHR_MERGE:          0
cpu0->cpu0_STLB TRANSLATION  ACCESS:          0 HIT:          0 MISS:          0 MSHR_MERGE:          0
cpu0->cpu0_STLB PREFETCH REQUESTED:          0 ISSUED:          0 USEFUL:          0 USELESS:          0
cpu0->cpu0_STLB AVERAGE MISS LATENCY: 707.3 cycles
cpu0->cpu0_L2C TOTAL        ACCESS:     667946 HIT:     218281 MISS:     449665 MSHR_MERGE:          0
cpu0->cpu0_L2C LOAD         ACCESS:     330479 HIT:      80762 MISS:     249717 MSHR_MERGE:          0
cpu0->cpu0_L2C RFO          ACCESS:     136467 HIT:      34863 MISS:     101604 MSHR_MERGE:          0
cpu0->cpu0_L2C PREFETCH     ACCESS:          0 HIT:          0 MISS:          0 MSHR_MERGE:          0
cpu0->cpu0_L2C WRITE        ACCESS:     200179 HIT:     102655 MISS:      97524 MSHR_MERGE:          0
cpu0->cpu0_L2C TRANSLATION  ACCESS:        821 HIT:          1 MISS:        820 MSHR_MERGE:          0
cpu0->cpu0_L2C PREFETCH REQUESTED:          0 ISSUED:          0 USEFUL:          0 USELESS:          0
cpu0->cpu0_L2C AVERAGE MISS LATENCY: 65.48 cycles
cpu0->cpu0_L1I TOTAL        ACCESS:    1739027 HIT:    1737984 MISS:       1043 MSHR_MERGE:        506
cpu0->cpu0_L1I LOAD         ACCESS:    1739027 HIT:    1737984 MISS:       1043 MSHR_MERGE:        506
cpu0->cpu0_L1I RFO          ACCESS:          0 HIT:          0 MISS:          0 MSHR_MERGE:          0
cpu0->cpu0_L1I PREFETCH     ACCESS:          0 HIT:          0 MISS:          0 MSHR_MERGE:          0
cpu0->cpu0_L1I WRITE        ACCESS:          0 HIT:          0 MISS:          0 MSHR_MERGE:          0
cpu0->cpu0_L1I TRANSLATION  ACCESS:          0 HIT:          0 MISS:          0 MSHR_MERGE:          0
cpu0->cpu0_L1I PREFETCH REQUESTED:          0 ISSUED:          0 USEFUL:          0 USELESS:          0
cpu0->cpu0_L1I AVERAGE MISS LATENCY: 223.5 cycles
cpu0->cpu0_L1D TOTAL        ACCESS:    4981981 HIT:    3670744 MISS:    1311237 MSHR_MERGE:     844006
cpu0->cpu0_L1D LOAD         ACCESS:    3323808 HIT:    2586102 MISS:     737706 MSHR_MERGE:     407763
cpu0->cpu0_L1D RFO          ACCESS:          0 HIT:          0 MISS:          0 MSHR_MERGE:          0
cpu0->cpu0_L1D PREFETCH     ACCESS:          0 HIT:          0 MISS:          0 MSHR_MERGE:          0
cpu0->cpu0_L1D WRITE        ACCESS:    1656859 HIT:    1084151 MISS:     572708 MSHR_MERGE:     436241
cpu0->cpu0_L1D TRANSLATION  ACCESS:       1314 HIT:        491 MISS:        823 MSHR_MERGE:          2
cpu0->cpu0_L1D PREFETCH REQUESTED:          0 ISSUED:          0 USEFUL:          0 USELESS:          0
cpu0->cpu0_L1D AVERAGE MISS LATENCY: 70.73 cycles
cpu0->cpu0_ITLB TOTAL        ACCESS:    1562798 HIT:    1562776 MISS:         22 MSHR_MERGE:         16
cpu0->cpu0_ITLB LOAD         ACCESS:    1562798 HIT:    1562776 MISS:         22 MSHR_MERGE:         16
cpu0->cpu0_ITLB RFO          ACCESS:          0 HIT:          0 MISS:          0 MSHR_MERGE:          0
cpu0->cpu0_ITLB PREFETCH     ACCESS:          0 HIT:          0 MISS:          0 MSHR_MERGE:          0
cpu0->cpu0_ITLB WRITE        ACCESS:          0 HIT:          0 MISS:          0 MSHR_MERGE:          0
cpu0->cpu0_ITLB TRANSLATION  ACCESS:          0 HIT:          0 MISS:          0 MSHR_MERGE:          0
cpu0->cpu0_ITLB PREFETCH REQUESTED:          0 ISSUED:          0 USEFUL:          0 USELESS:          0
cpu0->cpu0_ITLB AVERAGE MISS LATENCY: 892.2 cycles
cpu0->cpu0_DTLB TOTAL        ACCESS:    4824364 HIT:    4808910 MISS:      15454 MSHR_MERGE:       7436
cpu0->cpu0_DTLB LOAD         ACCESS:    4824364 HIT:    4808910 MISS:      15454 MSHR_MERGE:       7436
cpu0->cpu0_DTLB RFO          ACCESS:          0 HIT:          0 MISS:          0 MSHR_MERGE:          0
cpu0->cpu0_DTLB PREFETCH     ACCESS:          0 HIT:          0 MISS:          0 MSHR_MERGE:          0
cpu0->cpu0_DTLB WRITE        ACCESS:          0 HIT:          0 MISS:          0 MSHR_MERGE:          0
cpu0->cpu0_DTLB TRANSLATION  ACCESS:          0 HIT:          0 MISS:          0 MSHR_MERGE:          0
cpu0->cpu0_DTLB PREFETCH REQUESTED:          0 ISSUED:          0 USEFUL:          0 USELESS:          0
cpu0->cpu0_DTLB AVERAGE MISS LATENCY: 61.84 cycles
cpu0->LLC TOTAL        ACCESS:     509240 HIT:     413686 MISS:      95554 MSHR_MERGE:          0
cpu0->LLC LOAD         ACCESS:     249717 HIT:     205957 MISS:      43760 MSHR_MERGE:          0
cpu0->LLC RFO          ACCESS:     101604 HIT:      52429 MISS:      49175 MSHR_MERGE:          0
cpu0->LLC PREFETCH     ACCESS:          0 HIT:          0 MISS:          0 MSHR_MERGE:          0
cpu0->LLC WRITE        ACCESS:     157099 HIT:     155293 MISS:       1806 MSHR_MERGE:          0
cpu0->LLC TRANSLATION  ACCESS:        820 HIT:          7 MISS:        813 MSHR_MERGE:          0
cpu0->LLC PREFETCH REQUESTED:          0 ISSUED:          0 USEFUL:          0 USELESS:          0
cpu0->LLC AVERAGE MISS LATENCY: 247.8 cycles

DRAM Statistics

Channel 0 RQ ROW_BUFFER_HIT:       6384
  ROW_BUFFER_MISS:      87265
  AVG DBUS CONGESTED CYCLE: 10.86
Channel 0 WQ ROW_BUFFER_HIT:      15472
  ROW_BUFFER_MISS:      52222
  FULL:          0
Channel 0 REFRESHES ISSUED:       1745
