[VMEM] WARNING: physical memory size is smaller than virtual memory size.

*** ChampSim Multicore Out-of-Order Simulator ***
Warmup Instructions: 5000000
Simulation Instructions: 25000000
Number of CPUs: 1
Page size: 4096

Off-chip DRAM Size: 16 GiB Channels: 1 Width: 64-bit Data Rate: 3205 MT/s
Warmup finished CPU 0 instructions: 5000001 cycles: 1465766 cumulative IPC: 3.411 (Simulation time: 00 hr 00 min 23 sec)
Warmup complete CPU 0 instructions: 5000001 cycles: 1465766 cumulative IPC: 3.411 (Simulation time: 00 hr 00 min 23 sec)
Heartbeat CPU 0 instructions: 10000002 cycles: 5340754 heartbeat IPC: 1.872 cumulative IPC: 1.29 (Simulation time: 00 hr 00 min 58 sec)
Heartbeat CPU 0 instructions: 20000003 cycles: 13221119 heartbeat IPC: 1.269 cumulative IPC: 1.276 (Simulation time: 00 hr 02 min 11 sec)
Simulation finished CPU 0 instructions: 25000001 cycles: 19625647 cumulative IPC: 1.274 (Simulation time: 00 hr 03 min 16 sec)
Simulation complete CPU 0 instructions: 25000001 cycles: 19625647 cumulative IPC: 1.274 (Simulation time: 00 hr 03 min 16 sec)

ChampSim completed all CPUs

=== Simulation ===
CPU 0 runs ../../hw2/traces/628.pop2_s-17B.champsimtrace.xz

Region of Interest Statistics

CPU 0 cumulative IPC: 1.274 instructions: 25000001 cycles: 19625647
CPU 0 Branch Prediction Accuracy: 96.44% MPKI: 4.069 Average ROB Occupancy at Mispredict: 91.86
Branch type MPKI
BRANCH_DIRECT_JUMP: 0.05124
BRANCH_INDIRECT: 0.0016
BRANCH_CONDITIONAL: 4.016
BRANCH_DIRECT_CALL: 0
BRANCH_INDIRECT_CALL: 0
BRANCH_RETURN: 0

cpu0->cpu0_STLB TOTAL        ACCESS:      21993 HIT:      20763 MISS:       1230 MSHR_MERGE:          0
cpu0->cpu0_STLB LOAD         ACCESS:      21993 HIT:      20763 MISS:       1230 MSHR_MERGE:          0
cpu0->cpu0_STLB RFO          ACCESS:          0 HIT:          0 MISS:          0 MSHR_MERGE:          0
cpu0->cpu0_STLB PREFETCH     ACCESS:          0 HIT:          0 MISS:          0 MSHR_MERGE:          0
cpu0->cpu0_STLB WRITE        ACCESS:          0 HIT:          0 MISS:          0 MSHR_MERGE:          0
cpu0->cpu0_STLB TRANSLATION  ACCESS:          0 HIT:          0 MISS:          0 MSHR_MERGE:          0
cpu0->cpu0_STLB PREFETCH REQUESTED:          0 ISSUED:          0 USEFUL:          0 USELESS:          0
cpu0->cpu0_STLB AVERAGE MISS LATENCY: 744.7 cycles
cpu0->cpu0_L2C TOTAL        ACCESS:     753506 HIT:     510602 MISS:     242904 MSHR_MERGE:          0
cpu0->cpu0_L2C LOAD         ACCESS:     410721 HIT:     219279 MISS:     191442 MSHR_MERGE:          0
cpu0->cpu0_L2C RFO          ACCESS:     136397 HIT:     110702 MISS:      25695 MSHR_MERGE:          0
cpu0->cpu0_L2C PREFETCH     ACCESS:          0 HIT:          0 MISS:          0 MSHR_MERGE:          0
cpu0->cpu0_L2C WRITE        ACCESS:     203791 HIT:     180532 MISS:      23259 MSHR_MERGE:          0
cpu0->cpu0_L2C TRANSLATION  ACCESS:       2597 HIT:         89 MISS:       2508 MSHR_MERGE:          0
cpu0->cpu0_L2C PREFETCH REQUESTED:          0 ISSUED:          0 USEFUL:          0 USELESS:          0
cpu0->cpu0_L2C AVERAGE MISS LATENCY: 74.73 cycles
cpu0->cpu0_L1I TOTAL        ACCESS:    1899110 HIT:    1845693 MISS:      53417 MSHR_MERGE:      23876
cpu0->cpu0_L1I LOAD         ACCESS:    1899110 HIT:    1845693 MISS:      53417 MSHR_MERGE:      23876
cpu0->cpu0_L1I RFO          ACCESS:          0 HIT:          0 MISS:          0 MSHR_MERGE:          0
cpu0->cpu0_L1I PREFETCH     ACCESS:          0 HIT:          0 MISS:          0 MSHR_MERGE:          0
cpu0->cpu0_L1I WRITE        ACCESS:          0 HIT:          0 MISS:          0 MSHR_MERGE:          0
cpu0->cpu0_L1I TRANSLATION  ACCESS:          0 HIT:          0 MISS:          0 MSHR_MERGE:          0
cpu0->cpu0_L1I PREFETCH REQUESTED:          0 ISSUED:          0 USEFUL:          0 USELESS:          0
cpu0->cpu0_L1I AVERAGE MISS LATENCY: 20.27 cycles
cpu0->cpu0_L1D TOTAL        ACCESS:    6521562 HIT:    5366033 MISS:    1155529 MSHR_MERGE:     635349
cpu0->cpu0_L1D LOAD         ACCESS:    4626622 HIT:    3903032 MISS:     723590 MSHR_MERGE:     342406
cpu0->cpu0_L1D RFO          ACCESS:          0 HIT:          0 MISS:          0 MSHR_MERGE:          0
cpu0->cpu0_L1D PREFETCH     ACCESS:          0 HIT:          0 MISS:          0 MSHR_MERGE:          0
cpu0->cpu0_L1D WRITE        ACCESS:    1892071 HIT:    1462809 MISS:     429262 MSHR_MERGE:     292863
cpu0->cpu0_L1D TRANSLATION  ACCESS:       2869 HIT:        192 MISS:       2677 MSHR_MERGE:         80
cpu0->cpu0_L1D PREFETCH REQUESTED:          0 ISSUED:          0 USEFUL:          0 USELESS:          0
cpu0->cpu0_L1D AVERAGE MISS LATENCY: 42.45 cycles
cpu0->cpu0_ITLB TOTAL        ACCESS:    1547548 HIT:    1544408 MISS:       3140 MSHR_MERGE:       1901
cpu0->cpu0_ITLB LOAD         ACCESS:    1547548 HIT:    1544408 MISS:       3140 MSHR_MERGE:       1901
cpu0->cpu0_ITLB RFO          ACCESS:          0 HIT:          0 MISS:          0 MSHR_MERGE:          0
cpu0->cpu0_ITLB PREFETCH     ACCESS:          0 HIT:          0 MISS:          0 MSHR_MERGE:          0
cpu0->cpu0_ITLB WRITE        ACCESS:          0 HIT:          0 MISS:          0 MSHR_MERGE:          0
cpu0->cpu0_ITLB TRANSLATION  ACCESS:          0 HIT:          0 MISS:          0 MSHR_MERGE:          0
cpu0->cpu0_ITLB PREFETCH REQUESTED:          0 ISSUED:          0 USEFUL:          0 USELESS:          0
cpu0->cpu0_ITLB AVERAGE MISS LATENCY: 5 cycles
cpu0->cpu0_DTLB TOTAL        ACCESS:    6267158 HIT:    6231704 MISS:      35454 MSHR_MERGE:      14700
cpu0->cpu0_DTLB LOAD         ACCESS:    6267158 HIT:    6231704 MISS:      35454 MSHR_MERGE:      14700
cpu0->cpu0_DTLB RFO          ACCESS:          0 HIT:          0 MISS:          0 MSHR_MERGE:          0
cpu0->cpu0_DTLB PREFETCH     ACCESS:          0 HIT:          0 MISS:          0 MSHR_MERGE:          0
cpu0->cpu0_DTLB WRITE        ACCESS:          0 HIT:          0 MISS:          0 MSHR_MERGE:          0
cpu0->cpu0_DTLB TRANSLATION  ACCESS:          0 HIT:          0 MISS:          0 MSHR_MERGE:          0
cpu0->cpu0_DTLB PREFETCH REQUESTED:          0 ISSUED:          0 USEFUL:          0 USELESS:          0
cpu0->cpu0_DTLB AVERAGE MISS LATENCY: 49.19 cycles
cpu0->LLC TOTAL        ACCESS:     273584 HIT:     195837 MISS:      77747 MSHR_MERGE:          0
cpu0->LLC LOAD         ACCESS:     191442 HIT:     121604 MISS:      69838 MSHR_MERGE:          0
cpu0->LLC RFO          ACCESS:      25695 HIT:      20222 MISS:       5473 MSHR_MERGE:          0
cpu0->LLC PREFETCH     ACCESS:          0 HIT:          0 MISS:          0 MSHR_MERGE:          0
cpu0->LLC WRITE        ACCESS:      53939 HIT:      53263 MISS:        676 MSHR_MERGE:          0
cpu0->LLC TRANSLATION  ACCESS:       2508 HIT:        748 MISS:       1760 MSHR_MERGE:          0
cpu0->LLC PREFETCH REQUESTED:          0 ISSUED:          0 USEFUL:          0 USELESS:          0
cpu0->LLC AVERAGE MISS LATENCY: 189 cycles

DRAM Statistics

Channel 0 RQ ROW_BUFFER_HIT:       2134
  ROW_BUFFER_MISS:      74937
  AVG DBUS CONGESTED CYCLE: 14.66
Channel 0 WQ ROW_BUFFER_HIT:       4624
  ROW_BUFFER_MISS:      14403
  FULL:          0
Channel 0 REFRESHES ISSUED:       1635
