[VMEM] WARNING: physical memory size is smaller than virtual memory size.

*** ChampSim Multicore Out-of-Order Simulator ***
Warmup Instructions: 5000000
Simulation Instructions: 25000000
Number of CPUs: 1
Page size: 4096

Off-chip DRAM Size: 16 GiB Channels: 1 Width: 64-bit Data Rate: 3205 MT/s
Warmup finished CPU 0 instructions: 5000002 cycles: 1766136 cumulative IPC: 2.831 (Simulation time: 00 hr 00 min 23 sec)
Warmup complete CPU 0 instructions: 5000002 cycles: 1766136 cumulative IPC: 2.831 (Simulation time: 00 hr 00 min 23 sec)
Heartbeat CPU 0 instructions: 10000001 cycles: 5594059 heartbeat IPC: 1.788 cumulative IPC: 1.306 (Simulation time: 00 hr 00 min 58 sec)
Heartbeat CPU 0 instructions: 20000002 cycles: 13379859 heartbeat IPC: 1.284 cumulative IPC: 1.292 (Simulation time: 00 hr 02 min 05 sec)
Heartbeat CPU 0 instructions: 30000004 cycles: 21042815 heartbeat IPC: 1.305 cumulative IPC: 1.297 (Simulation time: 00 hr 03 min 07 sec)
Simulation finished CPU 0 instructions: 25000002 cycles: 19276679 cumulative IPC: 1.297 (Simulation time: 00 hr 03 min 07 sec)
Simulation complete CPU 0 instructions: 25000002 cycles: 19276679 cumulative IPC: 1.297 (Simulation time: 00 hr 03 min 07 sec)

ChampSim completed all CPUs

=== Simulation ===
CPU 0 runs ../../hw2/traces/631.deepsjeng_s-928B.champsimtrace.xz

Region of Interest Statistics

CPU 0 cumulative IPC: 1.297 instructions: 25000002 cycles: 19276679
CPU 0 Branch Prediction Accuracy: 90.01% MPKI: 14.97 Average ROB Occupancy at Mispredict: 32.65
Branch type MPKI
BRANCH_DIRECT_JUMP: 0.02156
BRANCH_INDIRECT: 0.00908
BRANCH_CONDITIONAL: 14.48
BRANCH_DIRECT_CALL: 0.02132
BRANCH_INDIRECT_CALL: 0
BRANCH_RETURN: 0.432

cpu0->cpu0_STLB TOTAL        ACCESS:       6386 HIT:       2006 MISS:       4380 MSHR_MERGE:          0
cpu0->cpu0_STLB LOAD         ACCESS:       6386 HIT:       2006 MISS:       4380 MSHR_MERGE:          0
cpu0->cpu0_STLB RFO          ACCESS:          0 HIT:          0 MISS:          0 MSHR_MERGE:          0
cpu0->cpu0_STLB PREFETCH     ACCESS:          0 HIT:          0 MISS:          0 MSHR_MERGE:          0
cpu0->cpu0_STLB WRITE        ACCESS:          0 HIT:          0 MISS:          0 MSHR_MERGE:          0
cpu0->cpu0_STLB TRANSLATION  ACCESS:          0 HIT:          0 MISS:          0 MSHR_MERGE:          0
cpu0->cpu0_STLB PREFETCH REQUESTED:          0 ISSUED:          0 USEFUL:          0 USELESS:          0
cpu0->cpu0_STLB AVERAGE MISS LATENCY: 935.4 cycles
cpu0->cpu0_L2C TOTAL        ACCESS:      70876 HIT:      50276 MISS:      20600 MSHR_MERGE:          0
cpu0->cpu0_L2C LOAD         ACCESS:      36340 HIT:      28833 MISS:       7507 MSHR_MERGE:          0
cpu0->cpu0_L2C RFO          ACCESS:       7709 HIT:       7074 MISS:        635 MSHR_MERGE:          0
cpu0->cpu0_L2C PREFETCH     ACCESS:          0 HIT:          0 MISS:          0 MSHR_MERGE:          0
cpu0->cpu0_L2C WRITE        ACCESS:      13997 HIT:      12680 MISS:       1317 MSHR_MERGE:          0
cpu0->cpu0_L2C TRANSLATION  ACCESS:      12830 HIT:       1689 MISS:      11141 MSHR_MERGE:          0
cpu0->cpu0_L2C PREFETCH REQUESTED:          0 ISSUED:          0 USEFUL:          0 USELESS:          0
cpu0->cpu0_L2C AVERAGE MISS LATENCY: 153.7 cycles
cpu0->cpu0_L1I TOTAL        ACCESS:    2891810 HIT:    2864147 MISS:      27663 MSHR_MERGE:       6381
cpu0->cpu0_L1I LOAD         ACCESS:    2891810 HIT:    2864147 MISS:      27663 MSHR_MERGE:       6381
cpu0->cpu0_L1I RFO          ACCESS:          0 HIT:          0 MISS:          0 MSHR_MERGE:          0
cpu0->cpu0_L1I PREFETCH     ACCESS:          0 HIT:          0 MISS:          0 MSHR_MERGE:          0
cpu0->cpu0_L1I WRITE        ACCESS:          0 HIT:          0 MISS:          0 MSHR_MERGE:          0
cpu0->cpu0_L1I TRANSLATION  ACCESS:          0 HIT:          0 MISS:          0 MSHR_MERGE:          0
cpu0->cpu0_L1I PREFETCH REQUESTED:          0 ISSUED:          0 USEFUL:          0 USELESS:          0
cpu0->cpu0_L1I AVERAGE MISS LATENCY: 7.15 cycles
cpu0->cpu0_L1D TOTAL        ACCESS:    7636752 HIT:    7582995 MISS:      53757 MSHR_MERGE:      18157
cpu0->cpu0_L1D LOAD         ACCESS:    4591723 HIT:    4571635 MISS:      20088 MSHR_MERGE:       5027
cpu0->cpu0_L1D RFO          ACCESS:          0 HIT:          0 MISS:          0 MSHR_MERGE:          0
cpu0->cpu0_L1D PREFETCH     ACCESS:          0 HIT:          0 MISS:          0 MSHR_MERGE:          0
cpu0->cpu0_L1D WRITE        ACCESS:    3031837 HIT:    3011032 MISS:      20805 MSHR_MERGE:      13096
cpu0->cpu0_L1D TRANSLATION  ACCESS:      13192 HIT:        328 MISS:      12864 MSHR_MERGE:         34
cpu0->cpu0_L1D PREFETCH REQUESTED:          0 ISSUED:          0 USEFUL:          0 USELESS:          0
cpu0->cpu0_L1D AVERAGE MISS LATENCY: 97.33 cycles
cpu0->cpu0_ITLB TOTAL        ACCESS:    2451802 HIT:    2451802 MISS:          0 MSHR_MERGE:          0
cpu0->cpu0_ITLB LOAD         ACCESS:    2451802 HIT:    2451802 MISS:          0 MSHR_MERGE:          0
cpu0->cpu0_ITLB RFO          ACCESS:          0 HIT:          0 MISS:          0 MSHR_MERGE:          0
cpu0->cpu0_ITLB PREFETCH     ACCESS:          0 HIT:          0 MISS:          0 MSHR_MERGE:          0
cpu0->cpu0_ITLB WRITE        ACCESS:          0 HIT:          0 MISS:          0 MSHR_MERGE:          0
cpu0->cpu0_ITLB TRANSLATION  ACCESS:          0 HIT:          0 MISS:          0 MSHR_MERGE:          0
cpu0->cpu0_ITLB PREFETCH REQUESTED:          0 ISSUED:          0 USEFUL:          0 USELESS:          0
cpu0->cpu0_ITLB AVERAGE MISS LATENCY: - cycles
cpu0->cpu0_DTLB TOTAL        ACCESS:    7140516 HIT:    7128592 MISS:      11924 MSHR_MERGE:       5538
cpu0->cpu0_DTLB LOAD         ACCESS:    7140516 HIT:    7128592 MISS:      11924 MSHR_MERGE:       5538
cpu0->cpu0_DTLB RFO          ACCESS:          0 HIT:          0 MISS:          0 MSHR_MERGE:          0
cpu0->cpu0_DTLB PREFETCH     ACCESS:          0 HIT:          0 MISS:          0 MSHR_MERGE:          0
cpu0->cpu0_DTLB WRITE        ACCESS:          0 HIT:          0 MISS:          0 MSHR_MERGE:          0
cpu0->cpu0_DTLB TRANSLATION  ACCESS:          0 HIT:          0 MISS:          0 MSHR_MERGE:          0
cpu0->cpu0_DTLB PREFETCH REQUESTED:          0 ISSUED:          0 USEFUL:          0 USELESS:          0
cpu0->cpu0_DTLB AVERAGE MISS LATENCY: 647.3 cycles
cpu0->LLC TOTAL        ACCESS:      23664 HIT:       6115 MISS:      17549 MSHR_MERGE:          0
cpu0->LLC LOAD         ACCESS:       7507 HIT:        540 MISS:       6967 MSHR_MERGE:          0
cpu0->LLC RFO          ACCESS:        635 HIT:        186 MISS:        449 MSHR_MERGE:          0
cpu0->LLC PREFETCH     ACCESS:          0 HIT:          0 MISS:          0 MSHR_MERGE:          0
cpu0->LLC WRITE        ACCESS:       4381 HIT:       4380 MISS:          1 MSHR_MERGE:          0
cpu0->LLC TRANSLATION  ACCESS:      11141 HIT:       1009 MISS:      10132 MSHR_MERGE:          0
cpu0->LLC PREFETCH REQUESTED:          0 ISSUED:          0 USEFUL:          0 USELESS:          0
cpu0->LLC AVERAGE MISS LATENCY: 162.7 cycles

DRAM Statistics

Channel 0 RQ ROW_BUFFER_HIT:         30
  ROW_BUFFER_MISS:      17518
  AVG DBUS CONGESTED CYCLE: 3.021
Channel 0 WQ ROW_BUFFER_HIT:          0
  ROW_BUFFER_MISS:         28
  FULL:          0
Channel 0 REFRESHES ISSUED:       1606
