[VMEM] WARNING: physical memory size is smaller than virtual memory size.

*** ChampSim Multicore Out-of-Order Simulator ***
Warmup Instructions: 5000000
Simulation Instructions: 25000000
Number of CPUs: 1
Page size: 4096

Off-chip DRAM Size: 16 GiB Channels: 1 Width: 64-bit Data Rate: 3205 MT/s
Warmup finished CPU 0 instructions: 5000001 cycles: 1343832 cumulative IPC: 3.721 (Simulation time: 00 hr 00 min 21 sec)
Warmup complete CPU 0 instructions: 5000001 cycles: 1343832 cumulative IPC: 3.721 (Simulation time: 00 hr 00 min 21 sec)
Heartbeat CPU 0 instructions: 10000002 cycles: 5045352 heartbeat IPC: 1.982 cumulative IPC: 1.351 (Simulation time: 00 hr 00 min 50 sec)
Heartbeat CPU 0 instructions: 20000003 cycles: 17147530 heartbeat IPC: 0.8263 cumulative IPC: 0.9491 (Simulation time: 00 hr 02 min 20 sec)
Simulation finished CPU 0 instructions: 25000000 cycles: 23491884 cumulative IPC: 1.064 (Simulation time: 00 hr 03 min 07 sec)
Simulation complete CPU 0 instructions: 25000000 cycles: 23491884 cumulative IPC: 1.064 (Simulation time: 00 hr 03 min 07 sec)

ChampSim completed all CPUs

=== Simulation ===
CPU 0 runs ../../hw2/traces/641.leela_s-149B.champsimtrace.xz

Region of Interest Statistics

CPU 0 cumulative IPC: 1.064 instructions: 25000000 cycles: 23491884
CPU 0 Branch Prediction Accuracy: 89.11% MPKI: 18.82 Average ROB Occupancy at Mispredict: 21.71
Branch type MPKI
BRANCH_DIRECT_JUMP: 0.1037
BRANCH_INDIRECT: 0.02064
BRANCH_CONDITIONAL: 18.64
BRANCH_DIRECT_CALL: 0.01192
BRANCH_INDIRECT_CALL: 0.0072
BRANCH_RETURN: 0.03844

cpu0->cpu0_STLB TOTAL        ACCESS:      12551 HIT:      12073 MISS:        478 MSHR_MERGE:          0
cpu0->cpu0_STLB LOAD         ACCESS:      12551 HIT:      12073 MISS:        478 MSHR_MERGE:          0
cpu0->cpu0_STLB RFO          ACCESS:          0 HIT:          0 MISS:          0 MSHR_MERGE:          0
cpu0->cpu0_STLB PREFETCH     ACCESS:          0 HIT:          0 MISS:          0 MSHR_MERGE:          0
cpu0->cpu0_STLB WRITE        ACCESS:          0 HIT:          0 MISS:          0 MSHR_MERGE:          0
cpu0->cpu0_STLB TRANSLATION  ACCESS:          0 HIT:          0 MISS:          0 MSHR_MERGE:          0
cpu0->cpu0_STLB PREFETCH REQUESTED:          0 ISSUED:          0 USEFUL:          0 USELESS:          0
cpu0->cpu0_STLB AVERAGE MISS LATENCY: 728.9 cycles
cpu0->cpu0_L2C TOTAL        ACCESS:     292666 HIT:     166834 MISS:     125832 MSHR_MERGE:          0
cpu0->cpu0_L2C LOAD         ACCESS:     124382 HIT:      70027 MISS:      54355 MSHR_MERGE:          0
cpu0->cpu0_L2C RFO          ACCESS:      63901 HIT:      30860 MISS:      33041 MSHR_MERGE:          0
cpu0->cpu0_L2C PREFETCH     ACCESS:          0 HIT:          0 MISS:          0 MSHR_MERGE:          0
cpu0->cpu0_L2C WRITE        ACCESS:     103632 HIT:      65943 MISS:      37689 MSHR_MERGE:          0
cpu0->cpu0_L2C TRANSLATION  ACCESS:        751 HIT:          4 MISS:        747 MSHR_MERGE:          0
cpu0->cpu0_L2C PREFETCH REQUESTED:          0 ISSUED:          0 USEFUL:          0 USELESS:          0
cpu0->cpu0_L2C AVERAGE MISS LATENCY: 46.46 cycles
cpu0->cpu0_L1I TOTAL        ACCESS:    3051442 HIT:    3040419 MISS:      11023 MSHR_MERGE:       3749
cpu0->cpu0_L1I LOAD         ACCESS:    3051442 HIT:    3040419 MISS:      11023 MSHR_MERGE:       3749
cpu0->cpu0_L1I RFO          ACCESS:          0 HIT:          0 MISS:          0 MSHR_MERGE:          0
cpu0->cpu0_L1I PREFETCH     ACCESS:          0 HIT:          0 MISS:          0 MSHR_MERGE:          0
cpu0->cpu0_L1I WRITE        ACCESS:          0 HIT:          0 MISS:          0 MSHR_MERGE:          0
cpu0->cpu0_L1I TRANSLATION  ACCESS:          0 HIT:          0 MISS:          0 MSHR_MERGE:          0
cpu0->cpu0_L1I PREFETCH REQUESTED:          0 ISSUED:          0 USEFUL:          0 USELESS:          0
cpu0->cpu0_L1I AVERAGE MISS LATENCY: 27.84 cycles
cpu0->cpu0_L1D TOTAL        ACCESS:    8178963 HIT:    7735478 MISS:     443485 MSHR_MERGE:     261725
cpu0->cpu0_L1D LOAD         ACCESS:    4621048 HIT:    4436205 MISS:     184843 MSHR_MERGE:      67735
cpu0->cpu0_L1D RFO          ACCESS:          0 HIT:          0 MISS:          0 MSHR_MERGE:          0
cpu0->cpu0_L1D PREFETCH     ACCESS:          0 HIT:          0 MISS:          0 MSHR_MERGE:          0
cpu0->cpu0_L1D WRITE        ACCESS:    3556958 HIT:    3299067 MISS:     257891 MSHR_MERGE:     193990
cpu0->cpu0_L1D TRANSLATION  ACCESS:        957 HIT:        206 MISS:        751 MSHR_MERGE:          0
cpu0->cpu0_L1D PREFETCH REQUESTED:          0 ISSUED:          0 USEFUL:          0 USELESS:          0
cpu0->cpu0_L1D AVERAGE MISS LATENCY: 39.07 cycles
cpu0->cpu0_ITLB TOTAL        ACCESS:    2774491 HIT:    2773869 MISS:        622 MSHR_MERGE:        336
cpu0->cpu0_ITLB LOAD         ACCESS:    2774491 HIT:    2773869 MISS:        622 MSHR_MERGE:        336
cpu0->cpu0_ITLB RFO          ACCESS:          0 HIT:          0 MISS:          0 MSHR_MERGE:          0
cpu0->cpu0_ITLB PREFETCH     ACCESS:          0 HIT:          0 MISS:          0 MSHR_MERGE:          0
cpu0->cpu0_ITLB WRITE        ACCESS:          0 HIT:          0 MISS:          0 MSHR_MERGE:          0
cpu0->cpu0_ITLB TRANSLATION  ACCESS:          0 HIT:          0 MISS:          0 MSHR_MERGE:          0
cpu0->cpu0_ITLB PREFETCH REQUESTED:          0 ISSUED:          0 USEFUL:          0 USELESS:          0
cpu0->cpu0_ITLB AVERAGE MISS LATENCY: 121 cycles
cpu0->cpu0_DTLB TOTAL        ACCESS:    7744987 HIT:    7727356 MISS:      17631 MSHR_MERGE:       5366
cpu0->cpu0_DTLB LOAD         ACCESS:    7744987 HIT:    7727356 MISS:      17631 MSHR_MERGE:       5366
cpu0->cpu0_DTLB RFO          ACCESS:          0 HIT:          0 MISS:          0 MSHR_MERGE:          0
cpu0->cpu0_DTLB PREFETCH     ACCESS:          0 HIT:          0 MISS:          0 MSHR_MERGE:          0
cpu0->cpu0_DTLB WRITE        ACCESS:          0 HIT:          0 MISS:          0 MSHR_MERGE:          0
cpu0->cpu0_DTLB TRANSLATION  ACCESS:          0 HIT:          0 MISS:          0 MSHR_MERGE:          0
cpu0->cpu0_DTLB PREFETCH REQUESTED:          0 ISSUED:          0 USEFUL:          0 USELESS:          0
cpu0->cpu0_DTLB AVERAGE MISS LATENCY: 30.74 cycles
cpu0->LLC TOTAL        ACCESS:     144870 HIT:     119044 MISS:      25826 MSHR_MERGE:          0
cpu0->LLC LOAD         ACCESS:      54355 HIT:      36753 MISS:      17602 MSHR_MERGE:          0
cpu0->LLC RFO          ACCESS:      33041 HIT:      25590 MISS:       7451 MSHR_MERGE:          0
cpu0->LLC PREFETCH     ACCESS:          0 HIT:          0 MISS:          0 MSHR_MERGE:          0
cpu0->LLC WRITE        ACCESS:      56727 HIT:      56696 MISS:         31 MSHR_MERGE:          0
cpu0->LLC TRANSLATION  ACCESS:        747 HIT:          5 MISS:        742 MSHR_MERGE:          0
cpu0->LLC PREFETCH REQUESTED:          0 ISSUED:          0 USEFUL:          0 USELESS:          0
cpu0->LLC AVERAGE MISS LATENCY: 168.3 cycles

DRAM Statistics

Channel 0 RQ ROW_BUFFER_HIT:       2767
  ROW_BUFFER_MISS:      23028
  AVG DBUS CONGESTED CYCLE: 9.318
Channel 0 WQ ROW_BUFFER_HIT:          5
  ROW_BUFFER_MISS:        131
  FULL:          0
Channel 0 REFRESHES ISSUED:       1958
