[VMEM] WARNING: physical memory size is smaller than virtual memory size.

*** ChampSim Multicore Out-of-Order Simulator ***
Warmup Instructions: 5000000
Simulation Instructions: 25000000
Number of CPUs: 1
Page size: 4096

Off-chip DRAM Size: 16 GiB Channels: 1 Width: 64-bit Data Rate: 3205 MT/s
Warmup finished CPU 0 instructions: 5000002 cycles: 1300157 cumulative IPC: 3.846 (Simulation time: 00 hr 00 min 18 sec)
Warmup complete CPU 0 instructions: 5000002 cycles: 1300157 cumulative IPC: 3.846 (Simulation time: 00 hr 00 min 18 sec)
Heartbeat CPU 0 instructions: 10000001 cycles: 4150567 heartbeat IPC: 2.409 cumulative IPC: 1.754 (Simulation time: 00 hr 00 min 43 sec)
Heartbeat CPU 0 instructions: 20000002 cycles: 10077478 heartbeat IPC: 1.687 cumulative IPC: 1.709 (Simulation time: 00 hr 01 min 34 sec)
Heartbeat CPU 0 instructions: 30000002 cycles: 15989133 heartbeat IPC: 1.692 cumulative IPC: 1.702 (Simulation time: 00 hr 02 min 15 sec)
Simulation finished CPU 0 instructions: 25000000 cycles: 14688976 cumulative IPC: 1.702 (Simulation time: 00 hr 02 min 15 sec)
Simulation complete CPU 0 instructions: 25000000 cycles: 14688976 cumulative IPC: 1.702 (Simulation time: 00 hr 02 min 15 sec)

ChampSim completed all CPUs

=== Simulation ===
CPU 0 runs ../../hw2/traces/644.nab_s-12459B.champsimtrace.xz

Region of Interest Statistics

CPU 0 cumulative IPC: 1.702 instructions: 25000000 cycles: 14688976
CPU 0 Branch Prediction Accuracy: 91.2% MPKI: 12.64 Average ROB Occupancy at Mispredict: 42.81
Branch type MPKI
BRANCH_DIRECT_JUMP: 0.2805
BRANCH_INDIRECT: 0
BRANCH_CONDITIONAL: 12.36
BRANCH_DIRECT_CALL: 0
BRANCH_INDIRECT_CALL: 0
BRANCH_RETURN: 0

cpu0->cpu0_STLB TOTAL        ACCESS:       5230 HIT:       5150 MISS:         80 MSHR_MERGE:          0
cpu0->cpu0_STLB LOAD         ACCESS:       5230 HIT:       5150 MISS:         80 MSHR_MERGE:          0
cpu0->cpu0_STLB RFO          ACCESS:          0 HIT:          0 MISS:          0 MSHR_MERGE:          0
cpu0->cpu0_STLB PREFETCH     ACCESS:          0 HIT:          0 MISS:          0 MSHR_MERGE:          0
cpu0->cpu0_STLB WRITE        ACCESS:          0 HIT:          0 MISS:          0 MSHR_MERGE:          0
cpu0->cpu0_STLB TRANSLATION  ACCESS:          0 HIT:          0 MISS:          0 MSHR_MERGE:          0
cpu0->cpu0_STLB PREFETCH REQUESTED:          0 ISSUED:          0 USEFUL:          0 USELESS:          0
cpu0->cpu0_STLB AVERAGE MISS LATENCY: 700.6 cycles
cpu0->cpu0_L2C TOTAL        ACCESS:     159968 HIT:     142778 MISS:      17190 MSHR_MERGE:          0
cpu0->cpu0_L2C LOAD         ACCESS:     139536 HIT:     126993 MISS:      12543 MSHR_MERGE:          0
cpu0->cpu0_L2C RFO          ACCESS:       8189 HIT:       4315 MISS:       3874 MSHR_MERGE:          0
cpu0->cpu0_L2C PREFETCH     ACCESS:          0 HIT:          0 MISS:          0 MSHR_MERGE:          0
cpu0->cpu0_L2C WRITE        ACCESS:      12117 HIT:      11457 MISS:        660 MSHR_MERGE:          0
cpu0->cpu0_L2C TRANSLATION  ACCESS:        126 HIT:         13 MISS:        113 MSHR_MERGE:          0
cpu0->cpu0_L2C PREFETCH REQUESTED:          0 ISSUED:          0 USEFUL:          0 USELESS:          0
cpu0->cpu0_L2C AVERAGE MISS LATENCY: 64.11 cycles
cpu0->cpu0_L1I TOTAL        ACCESS:      81096 HIT:      81096 MISS:          0 MSHR_MERGE:          0
cpu0->cpu0_L1I LOAD         ACCESS:      81096 HIT:      81096 MISS:          0 MSHR_MERGE:          0
cpu0->cpu0_L1I RFO          ACCESS:          0 HIT:          0 MISS:          0 MSHR_MERGE:          0
cpu0->cpu0_L1I PREFETCH     ACCESS:          0 HIT:          0 MISS:          0 MSHR_MERGE:          0
cpu0->cpu0_L1I WRITE        ACCESS:          0 HIT:          0 MISS:          0 MSHR_MERGE:          0
cpu0->cpu0_L1I TRANSLATION  ACCESS:          0 HIT:          0 MISS:          0 MSHR_MERGE:          0
cpu0->cpu0_L1I PREFETCH REQUESTED:          0 ISSUED:          0 USEFUL:          0 USELESS:          0
cpu0->cpu0_L1I AVERAGE MISS LATENCY: - cycles
cpu0->cpu0_L1D TOTAL        ACCESS:    6816966 HIT:    6582698 MISS:     234268 MSHR_MERGE:      86417
cpu0->cpu0_L1D LOAD         ACCESS:    4354139 HIT:    4187320 MISS:     166819 MSHR_MERGE:      27283
cpu0->cpu0_L1D RFO          ACCESS:          0 HIT:          0 MISS:          0 MSHR_MERGE:          0
cpu0->cpu0_L1D PREFETCH     ACCESS:          0 HIT:          0 MISS:          0 MSHR_MERGE:          0
cpu0->cpu0_L1D WRITE        ACCESS:    2462667 HIT:    2395345 MISS:      67322 MSHR_MERGE:      59133
cpu0->cpu0_L1D TRANSLATION  ACCESS:        160 HIT:         33 MISS:        127 MSHR_MERGE:          1
cpu0->cpu0_L1D PREFETCH REQUESTED:          0 ISSUED:          0 USEFUL:          0 USELESS:          0
cpu0->cpu0_L1D AVERAGE MISS LATENCY: 15.56 cycles
cpu0->cpu0_ITLB TOTAL        ACCESS:      66927 HIT:      66927 MISS:          0 MSHR_MERGE:          0
cpu0->cpu0_ITLB LOAD         ACCESS:      66927 HIT:      66927 MISS:          0 MSHR_MERGE:          0
cpu0->cpu0_ITLB RFO          ACCESS:          0 HIT:          0 MISS:          0 MSHR_MERGE:          0
cpu0->cpu0_ITLB PREFETCH     ACCESS:          0 HIT:          0 MISS:          0 MSHR_MERGE:          0
cpu0->cpu0_ITLB WRITE        ACCESS:          0 HIT:          0 MISS:          0 MSHR_MERGE:          0
cpu0->cpu0_ITLB TRANSLATION  ACCESS:          0 HIT:          0 MISS:          0 MSHR_MERGE:          0
cpu0->cpu0_ITLB PREFETCH REQUESTED:          0 ISSUED:          0 USEFUL:          0 USELESS:          0
cpu0->cpu0_ITLB AVERAGE MISS LATENCY: - cycles
cpu0->cpu0_DTLB TOTAL        ACCESS:    6501883 HIT:    6495077 MISS:       6806 MSHR_MERGE:       1576
cpu0->cpu0_DTLB LOAD         ACCESS:    6501883 HIT:    6495077 MISS:       6806 MSHR_MERGE:       1576
cpu0->cpu0_DTLB RFO          ACCESS:          0 HIT:          0 MISS:          0 MSHR_MERGE:          0
cpu0->cpu0_DTLB PREFETCH     ACCESS:          0 HIT:          0 MISS:          0 MSHR_MERGE:          0
cpu0->cpu0_DTLB WRITE        ACCESS:          0 HIT:          0 MISS:          0 MSHR_MERGE:          0
cpu0->cpu0_DTLB TRANSLATION  ACCESS:          0 HIT:          0 MISS:          0 MSHR_MERGE:          0
cpu0->cpu0_DTLB PREFETCH REQUESTED:          0 ISSUED:          0 USEFUL:          0 USELESS:          0
cpu0->cpu0_DTLB AVERAGE MISS LATENCY: 15.73 cycles
cpu0->LLC TOTAL        ACCESS:      19416 HIT:      14026 MISS:       5390 MSHR_MERGE:          0
cpu0->LLC LOAD         ACCESS:      12543 HIT:      11094 MISS:       1449 MSHR_MERGE:          0
cpu0->LLC RFO          ACCESS:       3874 HIT:         41 MISS:       3833 MSHR_MERGE:          0
cpu0->LLC PREFETCH     ACCESS:          0 HIT:          0 MISS:          0 MSHR_MERGE:          0
cpu0->LLC WRITE        ACCESS:       2886 HIT:       2886 MISS:          0 MSHR_MERGE:          0
cpu0->LLC TRANSLATION  ACCESS:        113 HIT:          5 MISS:        108 MSHR_MERGE:          0
cpu0->LLC PREFETCH REQUESTED:          0 ISSUED:          0 USEFUL:          0 USELESS:          0
cpu0->LLC AVERAGE MISS LATENCY: 157 cycles

DRAM Statistics

Channel 0 RQ ROW_BUFFER_HIT:       1449
  ROW_BUFFER_MISS:       3941
  AVG DBUS CONGESTED CYCLE: 2.636
Channel 0 WQ ROW_BUFFER_HIT:          0
  ROW_BUFFER_MISS:          0
  FULL:          0
Channel 0 REFRESHES ISSUED:       1224
