
---------- Begin Simulation Statistics ----------
simSeconds                                   0.003436                       # Number of seconds simulated (Second)
simTicks                                   3435752142                       # Number of ticks simulated (Tick)
finalTick                                  3435752142                       # Number of ticks from beginning of simulation (restored from checkpoints and never reset) (Tick)
simFreq                                  1000000000000                       # The number of ticks per simulated second ((Tick/Second))
hostSeconds                                     47.64                       # Real time elapsed on the host (Second)
hostTickRate                                 72117603                       # The number of ticks simulated per host second (ticks/s) ((Tick/Second))
hostMemory                                     288888                       # Number of bytes of host memory used (Byte)
simInsts                                     12299039                       # Number of instructions simulated (Count)
simOps                                       13340947                       # Number of ops (including micro ops) simulated (Count)
hostInstRate                                   258160                       # Simulator instruction rate (inst/s) ((Count/Second))
hostOpRate                                     280030                       # Simulator op (including micro ops) rate (op/s) ((Count/Second))
board.cache_hierarchy.l1dcaches.demandHits::processor.cores.core.data      3909886                       # number of demand (read+write) hits (Count)
board.cache_hierarchy.l1dcaches.demandHits::total      3909886                       # number of demand (read+write) hits (Count)
board.cache_hierarchy.l1dcaches.overallHits::processor.cores.core.data      3909886                       # number of overall hits (Count)
board.cache_hierarchy.l1dcaches.overallHits::total      3909886                       # number of overall hits (Count)
board.cache_hierarchy.l1dcaches.demandMisses::processor.cores.core.data        17550                       # number of demand (read+write) misses (Count)
board.cache_hierarchy.l1dcaches.demandMisses::total        17550                       # number of demand (read+write) misses (Count)
board.cache_hierarchy.l1dcaches.overallMisses::processor.cores.core.data        17550                       # number of overall misses (Count)
board.cache_hierarchy.l1dcaches.overallMisses::total        17550                       # number of overall misses (Count)
board.cache_hierarchy.l1dcaches.demandMissLatency::processor.cores.core.data    386478668                       # number of demand (read+write) miss ticks (Tick)
board.cache_hierarchy.l1dcaches.demandMissLatency::total    386478668                       # number of demand (read+write) miss ticks (Tick)
board.cache_hierarchy.l1dcaches.overallMissLatency::processor.cores.core.data    386478668                       # number of overall miss ticks (Tick)
board.cache_hierarchy.l1dcaches.overallMissLatency::total    386478668                       # number of overall miss ticks (Tick)
board.cache_hierarchy.l1dcaches.demandAccesses::processor.cores.core.data      3927436                       # number of demand (read+write) accesses (Count)
board.cache_hierarchy.l1dcaches.demandAccesses::total      3927436                       # number of demand (read+write) accesses (Count)
board.cache_hierarchy.l1dcaches.overallAccesses::processor.cores.core.data      3927436                       # number of overall (read+write) accesses (Count)
board.cache_hierarchy.l1dcaches.overallAccesses::total      3927436                       # number of overall (read+write) accesses (Count)
board.cache_hierarchy.l1dcaches.demandMissRate::processor.cores.core.data     0.004469                       # miss rate for demand accesses (Ratio)
board.cache_hierarchy.l1dcaches.demandMissRate::total     0.004469                       # miss rate for demand accesses (Ratio)
board.cache_hierarchy.l1dcaches.overallMissRate::processor.cores.core.data     0.004469                       # miss rate for overall accesses (Ratio)
board.cache_hierarchy.l1dcaches.overallMissRate::total     0.004469                       # miss rate for overall accesses (Ratio)
board.cache_hierarchy.l1dcaches.demandAvgMissLatency::processor.cores.core.data 22021.576524                       # average overall miss latency in ticks ((Tick/Count))
board.cache_hierarchy.l1dcaches.demandAvgMissLatency::total 22021.576524                       # average overall miss latency in ticks ((Tick/Count))
board.cache_hierarchy.l1dcaches.overallAvgMissLatency::processor.cores.core.data 22021.576524                       # average overall miss latency ((Tick/Count))
board.cache_hierarchy.l1dcaches.overallAvgMissLatency::total 22021.576524                       # average overall miss latency ((Tick/Count))
board.cache_hierarchy.l1dcaches.blockedCycles::no_mshrs         3683                       # number of cycles access was blocked (Cycle)
board.cache_hierarchy.l1dcaches.blockedCycles::no_wbuffers            0                       # number of cycles access was blocked (Cycle)
board.cache_hierarchy.l1dcaches.blockedCycles::no_targets        26883                       # number of cycles access was blocked (Cycle)
board.cache_hierarchy.l1dcaches.blockedCauses::no_mshrs          188                       # number of times access was blocked (Count)
board.cache_hierarchy.l1dcaches.blockedCauses::no_wbuffers            0                       # number of times access was blocked (Count)
board.cache_hierarchy.l1dcaches.blockedCauses::no_targets          578                       # number of times access was blocked (Count)
board.cache_hierarchy.l1dcaches.avgBlocked::no_mshrs    19.590426                       # average number of cycles each access was blocked ((Cycle/Count))
board.cache_hierarchy.l1dcaches.avgBlocked::no_wbuffers          nan                       # average number of cycles each access was blocked ((Cycle/Count))
board.cache_hierarchy.l1dcaches.avgBlocked::no_targets    46.510381                       # average number of cycles each access was blocked ((Cycle/Count))
board.cache_hierarchy.l1dcaches.writebacks::writebacks        34643                       # number of writebacks (Count)
board.cache_hierarchy.l1dcaches.writebacks::total        34643                       # number of writebacks (Count)
board.cache_hierarchy.l1dcaches.demandMshrHits::processor.cores.core.data         9039                       # number of demand (read+write) MSHR hits (Count)
board.cache_hierarchy.l1dcaches.demandMshrHits::total         9039                       # number of demand (read+write) MSHR hits (Count)
board.cache_hierarchy.l1dcaches.overallMshrHits::processor.cores.core.data         9039                       # number of overall MSHR hits (Count)
board.cache_hierarchy.l1dcaches.overallMshrHits::total         9039                       # number of overall MSHR hits (Count)
board.cache_hierarchy.l1dcaches.demandMshrMisses::processor.cores.core.data         8511                       # number of demand (read+write) MSHR misses (Count)
board.cache_hierarchy.l1dcaches.demandMshrMisses::total         8511                       # number of demand (read+write) MSHR misses (Count)
board.cache_hierarchy.l1dcaches.overallMshrMisses::cache_hierarchy.l1dcaches.prefetcher.prefetchers0         9689                       # number of overall MSHR misses (Count)
board.cache_hierarchy.l1dcaches.overallMshrMisses::cache_hierarchy.l1dcaches.prefetcher.prefetchers1         8654                       # number of overall MSHR misses (Count)
board.cache_hierarchy.l1dcaches.overallMshrMisses::cache_hierarchy.l1dcaches.prefetcher.prefetchers2         8824                       # number of overall MSHR misses (Count)
board.cache_hierarchy.l1dcaches.overallMshrMisses::processor.cores.core.data         8511                       # number of overall MSHR misses (Count)
board.cache_hierarchy.l1dcaches.overallMshrMisses::total        35678                       # number of overall MSHR misses (Count)
board.cache_hierarchy.l1dcaches.demandMshrMissLatency::processor.cores.core.data    161099289                       # number of demand (read+write) MSHR miss ticks (Tick)
board.cache_hierarchy.l1dcaches.demandMshrMissLatency::total    161099289                       # number of demand (read+write) MSHR miss ticks (Tick)
board.cache_hierarchy.l1dcaches.overallMshrMissLatency::cache_hierarchy.l1dcaches.prefetcher.prefetchers0    317611761                       # number of overall MSHR miss ticks (Tick)
board.cache_hierarchy.l1dcaches.overallMshrMissLatency::cache_hierarchy.l1dcaches.prefetcher.prefetchers1    169678347                       # number of overall MSHR miss ticks (Tick)
board.cache_hierarchy.l1dcaches.overallMshrMissLatency::cache_hierarchy.l1dcaches.prefetcher.prefetchers2     84730833                       # number of overall MSHR miss ticks (Tick)
board.cache_hierarchy.l1dcaches.overallMshrMissLatency::processor.cores.core.data    161099289                       # number of overall MSHR miss ticks (Tick)
board.cache_hierarchy.l1dcaches.overallMshrMissLatency::total    733120230                       # number of overall MSHR miss ticks (Tick)
board.cache_hierarchy.l1dcaches.demandMshrMissRate::processor.cores.core.data     0.002167                       # mshr miss ratio for demand accesses (Ratio)
board.cache_hierarchy.l1dcaches.demandMshrMissRate::total     0.002167                       # mshr miss ratio for demand accesses (Ratio)
board.cache_hierarchy.l1dcaches.overallMshrMissRate::cache_hierarchy.l1dcaches.prefetcher.prefetchers0          inf                       # mshr miss ratio for overall accesses (Ratio)
board.cache_hierarchy.l1dcaches.overallMshrMissRate::cache_hierarchy.l1dcaches.prefetcher.prefetchers1          inf                       # mshr miss ratio for overall accesses (Ratio)
board.cache_hierarchy.l1dcaches.overallMshrMissRate::cache_hierarchy.l1dcaches.prefetcher.prefetchers2          inf                       # mshr miss ratio for overall accesses (Ratio)
board.cache_hierarchy.l1dcaches.overallMshrMissRate::processor.cores.core.data     0.002167                       # mshr miss ratio for overall accesses (Ratio)
board.cache_hierarchy.l1dcaches.overallMshrMissRate::total     0.009084                       # mshr miss ratio for overall accesses (Ratio)
board.cache_hierarchy.l1dcaches.demandAvgMshrMissLatency::processor.cores.core.data 18928.362002                       # average overall mshr miss latency ((Tick/Count))
board.cache_hierarchy.l1dcaches.demandAvgMshrMissLatency::total 18928.362002                       # average overall mshr miss latency ((Tick/Count))
board.cache_hierarchy.l1dcaches.overallAvgMshrMissLatency::cache_hierarchy.l1dcaches.prefetcher.prefetchers0 32780.654454                       # average overall mshr miss latency ((Tick/Count))
board.cache_hierarchy.l1dcaches.overallAvgMshrMissLatency::cache_hierarchy.l1dcaches.prefetcher.prefetchers1 19606.927086                       # average overall mshr miss latency ((Tick/Count))
board.cache_hierarchy.l1dcaches.overallAvgMshrMissLatency::cache_hierarchy.l1dcaches.prefetcher.prefetchers2  9602.315617                       # average overall mshr miss latency ((Tick/Count))
board.cache_hierarchy.l1dcaches.overallAvgMshrMissLatency::processor.cores.core.data 18928.362002                       # average overall mshr miss latency ((Tick/Count))
board.cache_hierarchy.l1dcaches.overallAvgMshrMissLatency::total 20548.243455                       # average overall mshr miss latency ((Tick/Count))
board.cache_hierarchy.l1dcaches.replacements        34643                       # number of replacements (Count)
board.cache_hierarchy.l1dcaches.HardPFReq.mshrMisses::cache_hierarchy.l1dcaches.prefetcher.prefetchers0         9689                       # number of HardPFReq MSHR misses (Count)
board.cache_hierarchy.l1dcaches.HardPFReq.mshrMisses::cache_hierarchy.l1dcaches.prefetcher.prefetchers1         8654                       # number of HardPFReq MSHR misses (Count)
board.cache_hierarchy.l1dcaches.HardPFReq.mshrMisses::cache_hierarchy.l1dcaches.prefetcher.prefetchers2         8824                       # number of HardPFReq MSHR misses (Count)
board.cache_hierarchy.l1dcaches.HardPFReq.mshrMisses::total        27167                       # number of HardPFReq MSHR misses (Count)
board.cache_hierarchy.l1dcaches.HardPFReq.mshrMissLatency::cache_hierarchy.l1dcaches.prefetcher.prefetchers0    317611761                       # number of HardPFReq MSHR miss ticks (Tick)
board.cache_hierarchy.l1dcaches.HardPFReq.mshrMissLatency::cache_hierarchy.l1dcaches.prefetcher.prefetchers1    169678347                       # number of HardPFReq MSHR miss ticks (Tick)
board.cache_hierarchy.l1dcaches.HardPFReq.mshrMissLatency::cache_hierarchy.l1dcaches.prefetcher.prefetchers2     84730833                       # number of HardPFReq MSHR miss ticks (Tick)
board.cache_hierarchy.l1dcaches.HardPFReq.mshrMissLatency::total    572020941                       # number of HardPFReq MSHR miss ticks (Tick)
board.cache_hierarchy.l1dcaches.HardPFReq.mshrMissRate::cache_hierarchy.l1dcaches.prefetcher.prefetchers0          inf                       # mshr miss rate for HardPFReq accesses (Ratio)
board.cache_hierarchy.l1dcaches.HardPFReq.mshrMissRate::cache_hierarchy.l1dcaches.prefetcher.prefetchers1          inf                       # mshr miss rate for HardPFReq accesses (Ratio)
board.cache_hierarchy.l1dcaches.HardPFReq.mshrMissRate::cache_hierarchy.l1dcaches.prefetcher.prefetchers2          inf                       # mshr miss rate for HardPFReq accesses (Ratio)
board.cache_hierarchy.l1dcaches.HardPFReq.mshrMissRate::total          inf                       # mshr miss rate for HardPFReq accesses (Ratio)
board.cache_hierarchy.l1dcaches.HardPFReq.avgMshrMissLatency::cache_hierarchy.l1dcaches.prefetcher.prefetchers0 32780.654454                       # average HardPFReq mshr miss latency ((Tick/Count))
board.cache_hierarchy.l1dcaches.HardPFReq.avgMshrMissLatency::cache_hierarchy.l1dcaches.prefetcher.prefetchers1 19606.927086                       # average HardPFReq mshr miss latency ((Tick/Count))
board.cache_hierarchy.l1dcaches.HardPFReq.avgMshrMissLatency::cache_hierarchy.l1dcaches.prefetcher.prefetchers2  9602.315617                       # average HardPFReq mshr miss latency ((Tick/Count))
board.cache_hierarchy.l1dcaches.HardPFReq.avgMshrMissLatency::total 21055.727206                       # average HardPFReq mshr miss latency ((Tick/Count))
board.cache_hierarchy.l1dcaches.LoadLockedReq.hits::processor.cores.core.data           22                       # number of LoadLockedReq hits (Count)
board.cache_hierarchy.l1dcaches.LoadLockedReq.hits::total           22                       # number of LoadLockedReq hits (Count)
board.cache_hierarchy.l1dcaches.LoadLockedReq.misses::processor.cores.core.data            1                       # number of LoadLockedReq misses (Count)
board.cache_hierarchy.l1dcaches.LoadLockedReq.misses::total            1                       # number of LoadLockedReq misses (Count)
board.cache_hierarchy.l1dcaches.LoadLockedReq.missLatency::processor.cores.core.data         6993                       # number of LoadLockedReq miss ticks (Tick)
board.cache_hierarchy.l1dcaches.LoadLockedReq.missLatency::total         6993                       # number of LoadLockedReq miss ticks (Tick)
board.cache_hierarchy.l1dcaches.LoadLockedReq.accesses::processor.cores.core.data           23                       # number of LoadLockedReq accesses(hits+misses) (Count)
board.cache_hierarchy.l1dcaches.LoadLockedReq.accesses::total           23                       # number of LoadLockedReq accesses(hits+misses) (Count)
board.cache_hierarchy.l1dcaches.LoadLockedReq.missRate::processor.cores.core.data     0.043478                       # miss rate for LoadLockedReq accesses (Ratio)
board.cache_hierarchy.l1dcaches.LoadLockedReq.missRate::total     0.043478                       # miss rate for LoadLockedReq accesses (Ratio)
board.cache_hierarchy.l1dcaches.LoadLockedReq.avgMissLatency::processor.cores.core.data         6993                       # average LoadLockedReq miss latency ((Tick/Count))
board.cache_hierarchy.l1dcaches.LoadLockedReq.avgMissLatency::total         6993                       # average LoadLockedReq miss latency ((Tick/Count))
board.cache_hierarchy.l1dcaches.LoadLockedReq.mshrMisses::processor.cores.core.data            1                       # number of LoadLockedReq MSHR misses (Count)
board.cache_hierarchy.l1dcaches.LoadLockedReq.mshrMisses::total            1                       # number of LoadLockedReq MSHR misses (Count)
board.cache_hierarchy.l1dcaches.LoadLockedReq.mshrMissLatency::processor.cores.core.data         5661                       # number of LoadLockedReq MSHR miss ticks (Tick)
board.cache_hierarchy.l1dcaches.LoadLockedReq.mshrMissLatency::total         5661                       # number of LoadLockedReq MSHR miss ticks (Tick)
board.cache_hierarchy.l1dcaches.LoadLockedReq.mshrMissRate::processor.cores.core.data     0.043478                       # mshr miss rate for LoadLockedReq accesses (Ratio)
board.cache_hierarchy.l1dcaches.LoadLockedReq.mshrMissRate::total     0.043478                       # mshr miss rate for LoadLockedReq accesses (Ratio)
board.cache_hierarchy.l1dcaches.LoadLockedReq.avgMshrMissLatency::processor.cores.core.data         5661                       # average LoadLockedReq mshr miss latency ((Tick/Count))
board.cache_hierarchy.l1dcaches.LoadLockedReq.avgMshrMissLatency::total         5661                       # average LoadLockedReq mshr miss latency ((Tick/Count))
board.cache_hierarchy.l1dcaches.ReadReq.hits::processor.cores.core.data      2646102                       # number of ReadReq hits (Count)
board.cache_hierarchy.l1dcaches.ReadReq.hits::total      2646102                       # number of ReadReq hits (Count)
board.cache_hierarchy.l1dcaches.ReadReq.misses::processor.cores.core.data         7468                       # number of ReadReq misses (Count)
board.cache_hierarchy.l1dcaches.ReadReq.misses::total         7468                       # number of ReadReq misses (Count)
board.cache_hierarchy.l1dcaches.ReadReq.missLatency::processor.cores.core.data    182143341                       # number of ReadReq miss ticks (Tick)
board.cache_hierarchy.l1dcaches.ReadReq.missLatency::total    182143341                       # number of ReadReq miss ticks (Tick)
board.cache_hierarchy.l1dcaches.ReadReq.accesses::processor.cores.core.data      2653570                       # number of ReadReq accesses(hits+misses) (Count)
board.cache_hierarchy.l1dcaches.ReadReq.accesses::total      2653570                       # number of ReadReq accesses(hits+misses) (Count)
board.cache_hierarchy.l1dcaches.ReadReq.missRate::processor.cores.core.data     0.002814                       # miss rate for ReadReq accesses (Ratio)
board.cache_hierarchy.l1dcaches.ReadReq.missRate::total     0.002814                       # miss rate for ReadReq accesses (Ratio)
board.cache_hierarchy.l1dcaches.ReadReq.avgMissLatency::processor.cores.core.data 24389.842126                       # average ReadReq miss latency ((Tick/Count))
board.cache_hierarchy.l1dcaches.ReadReq.avgMissLatency::total 24389.842126                       # average ReadReq miss latency ((Tick/Count))
board.cache_hierarchy.l1dcaches.ReadReq.mshrHits::processor.cores.core.data         4701                       # number of ReadReq MSHR hits (Count)
board.cache_hierarchy.l1dcaches.ReadReq.mshrHits::total         4701                       # number of ReadReq MSHR hits (Count)
board.cache_hierarchy.l1dcaches.ReadReq.mshrMisses::processor.cores.core.data         2767                       # number of ReadReq MSHR misses (Count)
board.cache_hierarchy.l1dcaches.ReadReq.mshrMisses::total         2767                       # number of ReadReq MSHR misses (Count)
board.cache_hierarchy.l1dcaches.ReadReq.mshrMissLatency::processor.cores.core.data     61780158                       # number of ReadReq MSHR miss ticks (Tick)
board.cache_hierarchy.l1dcaches.ReadReq.mshrMissLatency::total     61780158                       # number of ReadReq MSHR miss ticks (Tick)
board.cache_hierarchy.l1dcaches.ReadReq.mshrMissRate::processor.cores.core.data     0.001043                       # mshr miss rate for ReadReq accesses (Ratio)
board.cache_hierarchy.l1dcaches.ReadReq.mshrMissRate::total     0.001043                       # mshr miss rate for ReadReq accesses (Ratio)
board.cache_hierarchy.l1dcaches.ReadReq.avgMshrMissLatency::processor.cores.core.data 22327.487532                       # average ReadReq mshr miss latency ((Tick/Count))
board.cache_hierarchy.l1dcaches.ReadReq.avgMshrMissLatency::total 22327.487532                       # average ReadReq mshr miss latency ((Tick/Count))
board.cache_hierarchy.l1dcaches.StoreCondReq.hits::processor.cores.core.data            7                       # number of StoreCondReq hits (Count)
board.cache_hierarchy.l1dcaches.StoreCondReq.hits::total            7                       # number of StoreCondReq hits (Count)
board.cache_hierarchy.l1dcaches.StoreCondReq.accesses::processor.cores.core.data            7                       # number of StoreCondReq accesses(hits+misses) (Count)
board.cache_hierarchy.l1dcaches.StoreCondReq.accesses::total            7                       # number of StoreCondReq accesses(hits+misses) (Count)
board.cache_hierarchy.l1dcaches.SwapReq.hits::processor.cores.core.data           42                       # number of SwapReq hits (Count)
board.cache_hierarchy.l1dcaches.SwapReq.hits::total           42                       # number of SwapReq hits (Count)
board.cache_hierarchy.l1dcaches.SwapReq.misses::processor.cores.core.data            4                       # number of SwapReq misses (Count)
board.cache_hierarchy.l1dcaches.SwapReq.misses::total            4                       # number of SwapReq misses (Count)
board.cache_hierarchy.l1dcaches.SwapReq.missLatency::processor.cores.core.data        29304                       # number of SwapReq miss ticks (Tick)
board.cache_hierarchy.l1dcaches.SwapReq.missLatency::total        29304                       # number of SwapReq miss ticks (Tick)
board.cache_hierarchy.l1dcaches.SwapReq.accesses::processor.cores.core.data           46                       # number of SwapReq accesses(hits+misses) (Count)
board.cache_hierarchy.l1dcaches.SwapReq.accesses::total           46                       # number of SwapReq accesses(hits+misses) (Count)
board.cache_hierarchy.l1dcaches.SwapReq.missRate::processor.cores.core.data     0.086957                       # miss rate for SwapReq accesses (Ratio)
board.cache_hierarchy.l1dcaches.SwapReq.missRate::total     0.086957                       # miss rate for SwapReq accesses (Ratio)
board.cache_hierarchy.l1dcaches.SwapReq.avgMissLatency::processor.cores.core.data         7326                       # average SwapReq miss latency ((Tick/Count))
board.cache_hierarchy.l1dcaches.SwapReq.avgMissLatency::total         7326                       # average SwapReq miss latency ((Tick/Count))
board.cache_hierarchy.l1dcaches.SwapReq.mshrMisses::processor.cores.core.data            4                       # number of SwapReq MSHR misses (Count)
board.cache_hierarchy.l1dcaches.SwapReq.mshrMisses::total            4                       # number of SwapReq MSHR misses (Count)
board.cache_hierarchy.l1dcaches.SwapReq.mshrMissLatency::processor.cores.core.data        23976                       # number of SwapReq MSHR miss ticks (Tick)
board.cache_hierarchy.l1dcaches.SwapReq.mshrMissLatency::total        23976                       # number of SwapReq MSHR miss ticks (Tick)
board.cache_hierarchy.l1dcaches.SwapReq.mshrMissRate::processor.cores.core.data     0.086957                       # mshr miss rate for SwapReq accesses (Ratio)
board.cache_hierarchy.l1dcaches.SwapReq.mshrMissRate::total     0.086957                       # mshr miss rate for SwapReq accesses (Ratio)
board.cache_hierarchy.l1dcaches.SwapReq.avgMshrMissLatency::processor.cores.core.data         5994                       # average SwapReq mshr miss latency ((Tick/Count))
board.cache_hierarchy.l1dcaches.SwapReq.avgMshrMissLatency::total         5994                       # average SwapReq mshr miss latency ((Tick/Count))
board.cache_hierarchy.l1dcaches.WriteLineReq.misses::processor.cores.core.data           14                       # number of WriteLineReq misses (Count)
board.cache_hierarchy.l1dcaches.WriteLineReq.misses::total           14                       # number of WriteLineReq misses (Count)
board.cache_hierarchy.l1dcaches.WriteLineReq.missLatency::processor.cores.core.data       491172                       # number of WriteLineReq miss ticks (Tick)
board.cache_hierarchy.l1dcaches.WriteLineReq.missLatency::total       491172                       # number of WriteLineReq miss ticks (Tick)
board.cache_hierarchy.l1dcaches.WriteLineReq.accesses::processor.cores.core.data           14                       # number of WriteLineReq accesses(hits+misses) (Count)
board.cache_hierarchy.l1dcaches.WriteLineReq.accesses::total           14                       # number of WriteLineReq accesses(hits+misses) (Count)
board.cache_hierarchy.l1dcaches.WriteLineReq.missRate::processor.cores.core.data            1                       # miss rate for WriteLineReq accesses (Ratio)
board.cache_hierarchy.l1dcaches.WriteLineReq.missRate::total            1                       # miss rate for WriteLineReq accesses (Ratio)
board.cache_hierarchy.l1dcaches.WriteLineReq.avgMissLatency::processor.cores.core.data 35083.714286                       # average WriteLineReq miss latency ((Tick/Count))
board.cache_hierarchy.l1dcaches.WriteLineReq.avgMissLatency::total 35083.714286                       # average WriteLineReq miss latency ((Tick/Count))
board.cache_hierarchy.l1dcaches.WriteLineReq.mshrHits::processor.cores.core.data            4                       # number of WriteLineReq MSHR hits (Count)
board.cache_hierarchy.l1dcaches.WriteLineReq.mshrHits::total            4                       # number of WriteLineReq MSHR hits (Count)
board.cache_hierarchy.l1dcaches.WriteLineReq.mshrMisses::processor.cores.core.data           10                       # number of WriteLineReq MSHR misses (Count)
board.cache_hierarchy.l1dcaches.WriteLineReq.mshrMisses::total           10                       # number of WriteLineReq MSHR misses (Count)
board.cache_hierarchy.l1dcaches.WriteLineReq.mshrMissLatency::processor.cores.core.data       123540                       # number of WriteLineReq MSHR miss ticks (Tick)
board.cache_hierarchy.l1dcaches.WriteLineReq.mshrMissLatency::total       123540                       # number of WriteLineReq MSHR miss ticks (Tick)
board.cache_hierarchy.l1dcaches.WriteLineReq.mshrMissRate::processor.cores.core.data     0.714286                       # mshr miss rate for WriteLineReq accesses (Ratio)
board.cache_hierarchy.l1dcaches.WriteLineReq.mshrMissRate::total     0.714286                       # mshr miss rate for WriteLineReq accesses (Ratio)
board.cache_hierarchy.l1dcaches.WriteLineReq.avgMshrMissLatency::processor.cores.core.data        12354                       # average WriteLineReq mshr miss latency ((Tick/Count))
board.cache_hierarchy.l1dcaches.WriteLineReq.avgMshrMissLatency::total        12354                       # average WriteLineReq mshr miss latency ((Tick/Count))
board.cache_hierarchy.l1dcaches.WriteReq.hits::processor.cores.core.data      1263784                       # number of WriteReq hits (Count)
board.cache_hierarchy.l1dcaches.WriteReq.hits::total      1263784                       # number of WriteReq hits (Count)
board.cache_hierarchy.l1dcaches.WriteReq.misses::processor.cores.core.data        10068                       # number of WriteReq misses (Count)
board.cache_hierarchy.l1dcaches.WriteReq.misses::total        10068                       # number of WriteReq misses (Count)
board.cache_hierarchy.l1dcaches.WriteReq.missLatency::processor.cores.core.data    203844155                       # number of WriteReq miss ticks (Tick)
board.cache_hierarchy.l1dcaches.WriteReq.missLatency::total    203844155                       # number of WriteReq miss ticks (Tick)
board.cache_hierarchy.l1dcaches.WriteReq.accesses::processor.cores.core.data      1273852                       # number of WriteReq accesses(hits+misses) (Count)
board.cache_hierarchy.l1dcaches.WriteReq.accesses::total      1273852                       # number of WriteReq accesses(hits+misses) (Count)
board.cache_hierarchy.l1dcaches.WriteReq.missRate::processor.cores.core.data     0.007904                       # miss rate for WriteReq accesses (Ratio)
board.cache_hierarchy.l1dcaches.WriteReq.missRate::total     0.007904                       # miss rate for WriteReq accesses (Ratio)
board.cache_hierarchy.l1dcaches.WriteReq.avgMissLatency::processor.cores.core.data 20246.737684                       # average WriteReq miss latency ((Tick/Count))
board.cache_hierarchy.l1dcaches.WriteReq.avgMissLatency::total 20246.737684                       # average WriteReq miss latency ((Tick/Count))
board.cache_hierarchy.l1dcaches.WriteReq.mshrHits::processor.cores.core.data         4334                       # number of WriteReq MSHR hits (Count)
board.cache_hierarchy.l1dcaches.WriteReq.mshrHits::total         4334                       # number of WriteReq MSHR hits (Count)
board.cache_hierarchy.l1dcaches.WriteReq.mshrMisses::processor.cores.core.data         5734                       # number of WriteReq MSHR misses (Count)
board.cache_hierarchy.l1dcaches.WriteReq.mshrMisses::total         5734                       # number of WriteReq MSHR misses (Count)
board.cache_hierarchy.l1dcaches.WriteReq.mshrMissLatency::processor.cores.core.data     99195591                       # number of WriteReq MSHR miss ticks (Tick)
board.cache_hierarchy.l1dcaches.WriteReq.mshrMissLatency::total     99195591                       # number of WriteReq MSHR miss ticks (Tick)
board.cache_hierarchy.l1dcaches.WriteReq.mshrMissRate::processor.cores.core.data     0.004501                       # mshr miss rate for WriteReq accesses (Ratio)
board.cache_hierarchy.l1dcaches.WriteReq.mshrMissRate::total     0.004501                       # mshr miss rate for WriteReq accesses (Ratio)
board.cache_hierarchy.l1dcaches.WriteReq.avgMshrMissLatency::processor.cores.core.data 17299.544995                       # average WriteReq mshr miss latency ((Tick/Count))
board.cache_hierarchy.l1dcaches.WriteReq.avgMshrMissLatency::total 17299.544995                       # average WriteReq mshr miss latency ((Tick/Count))
board.cache_hierarchy.l1dcaches.power_state.pwrStateResidencyTicks::UNDEFINED   3435752142                       # Cumulative time (in ticks) in various power states (Tick)
board.cache_hierarchy.l1dcaches.prefetcher.demandMshrMisses            0                       # demands not covered by prefetchs (Count)
board.cache_hierarchy.l1dcaches.prefetcher.pfIssued        84491                       # number of hwpf issued (Count)
board.cache_hierarchy.l1dcaches.prefetcher.pfUseful            0                       # number of useful prefetch (Count)
board.cache_hierarchy.l1dcaches.prefetcher.pfUsefulButMiss            0                       # number of hit on prefetch but cache block is not in an usable state (Count)
board.cache_hierarchy.l1dcaches.prefetcher.accuracy            0                       # accuracy of the prefetcher (Count)
board.cache_hierarchy.l1dcaches.prefetcher.coverage          nan                       # coverage brought by this prefetcher (Count)
board.cache_hierarchy.l1dcaches.prefetcher.pfHitInCache        53243                       # number of prefetches hitting in cache (Count)
board.cache_hierarchy.l1dcaches.prefetcher.pfHitInMSHR         4081                       # number of prefetches hitting in a MSHR (Count)
board.cache_hierarchy.l1dcaches.prefetcher.pfHitInWB            0                       # number of prefetches hit in the Write Buffer (Count)
board.cache_hierarchy.l1dcaches.prefetcher.pfLate        57324                       # number of late prefetches (hitting in cache, MSHR or WB) (Count)
board.cache_hierarchy.l1dcaches.prefetcher.power_state.pwrStateResidencyTicks::UNDEFINED   3435752142                       # Cumulative time (in ticks) in various power states (Tick)
board.cache_hierarchy.l1dcaches.prefetcher.prefetchers0.demandMshrMisses         8511                       # demands not covered by prefetchs (Count)
board.cache_hierarchy.l1dcaches.prefetcher.prefetchers0.pfIssued        66905                       # number of hwpf issued (Count)
board.cache_hierarchy.l1dcaches.prefetcher.prefetchers0.pfUnused         8490                       # number of HardPF blocks evicted w/o reference (Count)
board.cache_hierarchy.l1dcaches.prefetcher.prefetchers0.pfUseful         9155                       # number of useful prefetch (Count)
board.cache_hierarchy.l1dcaches.prefetcher.prefetchers0.pfUsefulButMiss            0                       # number of hit on prefetch but cache block is not in an usable state (Count)
board.cache_hierarchy.l1dcaches.prefetcher.prefetchers0.accuracy     0.136836                       # accuracy of the prefetcher (Count)
board.cache_hierarchy.l1dcaches.prefetcher.prefetchers0.coverage     0.518227                       # coverage brought by this prefetcher (Count)
board.cache_hierarchy.l1dcaches.prefetcher.prefetchers0.pfHitInCache            0                       # number of prefetches hitting in cache (Count)
board.cache_hierarchy.l1dcaches.prefetcher.prefetchers0.pfHitInMSHR            0                       # number of prefetches hitting in a MSHR (Count)
board.cache_hierarchy.l1dcaches.prefetcher.prefetchers0.pfHitInWB            0                       # number of prefetches hit in the Write Buffer (Count)
board.cache_hierarchy.l1dcaches.prefetcher.prefetchers0.pfLate            0                       # number of late prefetches (hitting in cache, MSHR or WB) (Count)
board.cache_hierarchy.l1dcaches.prefetcher.prefetchers0.pfIdentified        67953                       # number of prefetch candidates identified (Count)
board.cache_hierarchy.l1dcaches.prefetcher.prefetchers0.pfBufferHit          885                       # number of redundant prefetches already in prefetch queue (Count)
board.cache_hierarchy.l1dcaches.prefetcher.prefetchers0.pfInCache            0                       # number of redundant prefetches already in cache/mshr dropped (Count)
board.cache_hierarchy.l1dcaches.prefetcher.prefetchers0.pfRemovedDemand           83                       # number of prefetches dropped due to a demand for the same address (Count)
board.cache_hierarchy.l1dcaches.prefetcher.prefetchers0.pfRemovedFull            0                       # number of prefetches dropped due to prefetch queue size (Count)
board.cache_hierarchy.l1dcaches.prefetcher.prefetchers0.pfSpanPage         5791                       # number of prefetches that crossed the page (Count)
board.cache_hierarchy.l1dcaches.prefetcher.prefetchers0.pfUsefulSpanPage         4846                       # number of prefetches that is useful and crossed the page (Count)
board.cache_hierarchy.l1dcaches.prefetcher.prefetchers0.power_state.pwrStateResidencyTicks::UNDEFINED   3435752142                       # Cumulative time (in ticks) in various power states (Tick)
board.cache_hierarchy.l1dcaches.prefetcher.prefetchers1.demandMshrMisses         8511                       # demands not covered by prefetchs (Count)
board.cache_hierarchy.l1dcaches.prefetcher.prefetchers1.pfIssued         8740                       # number of hwpf issued (Count)
board.cache_hierarchy.l1dcaches.prefetcher.prefetchers1.pfUnused         8490                       # number of HardPF blocks evicted w/o reference (Count)
board.cache_hierarchy.l1dcaches.prefetcher.prefetchers1.pfUseful         3660                       # number of useful prefetch (Count)
board.cache_hierarchy.l1dcaches.prefetcher.prefetchers1.pfUsefulButMiss            0                       # number of hit on prefetch but cache block is not in an usable state (Count)
board.cache_hierarchy.l1dcaches.prefetcher.prefetchers1.accuracy     0.418764                       # accuracy of the prefetcher (Count)
board.cache_hierarchy.l1dcaches.prefetcher.prefetchers1.coverage     0.300715                       # coverage brought by this prefetcher (Count)
board.cache_hierarchy.l1dcaches.prefetcher.prefetchers1.pfHitInCache            0                       # number of prefetches hitting in cache (Count)
board.cache_hierarchy.l1dcaches.prefetcher.prefetchers1.pfHitInMSHR            0                       # number of prefetches hitting in a MSHR (Count)
board.cache_hierarchy.l1dcaches.prefetcher.prefetchers1.pfHitInWB            0                       # number of prefetches hit in the Write Buffer (Count)
board.cache_hierarchy.l1dcaches.prefetcher.prefetchers1.pfLate            0                       # number of late prefetches (hitting in cache, MSHR or WB) (Count)
board.cache_hierarchy.l1dcaches.prefetcher.prefetchers1.pfIdentified        30149                       # number of prefetch candidates identified (Count)
board.cache_hierarchy.l1dcaches.prefetcher.prefetchers1.pfBufferHit         2154                       # number of redundant prefetches already in prefetch queue (Count)
board.cache_hierarchy.l1dcaches.prefetcher.prefetchers1.pfInCache        16662                       # number of redundant prefetches already in cache/mshr dropped (Count)
board.cache_hierarchy.l1dcaches.prefetcher.prefetchers1.pfRemovedDemand           52                       # number of prefetches dropped due to a demand for the same address (Count)
board.cache_hierarchy.l1dcaches.prefetcher.prefetchers1.pfRemovedFull         2410                       # number of prefetches dropped due to prefetch queue size (Count)
board.cache_hierarchy.l1dcaches.prefetcher.prefetchers1.pfSpanPage            0                       # number of prefetches that crossed the page (Count)
board.cache_hierarchy.l1dcaches.prefetcher.prefetchers1.pfUsefulSpanPage            0                       # number of prefetches that is useful and crossed the page (Count)
board.cache_hierarchy.l1dcaches.prefetcher.prefetchers1.power_state.pwrStateResidencyTicks::UNDEFINED   3435752142                       # Cumulative time (in ticks) in various power states (Tick)
board.cache_hierarchy.l1dcaches.prefetcher.prefetchers2.demandMshrMisses         8511                       # demands not covered by prefetchs (Count)
board.cache_hierarchy.l1dcaches.prefetcher.prefetchers2.pfIssued         8846                       # number of hwpf issued (Count)
board.cache_hierarchy.l1dcaches.prefetcher.prefetchers2.pfUnused         8490                       # number of HardPF blocks evicted w/o reference (Count)
board.cache_hierarchy.l1dcaches.prefetcher.prefetchers2.pfUseful         5381                       # number of useful prefetch (Count)
board.cache_hierarchy.l1dcaches.prefetcher.prefetchers2.pfUsefulButMiss            0                       # number of hit on prefetch but cache block is not in an usable state (Count)
board.cache_hierarchy.l1dcaches.prefetcher.prefetchers2.accuracy     0.608298                       # accuracy of the prefetcher (Count)
board.cache_hierarchy.l1dcaches.prefetcher.prefetchers2.coverage     0.387345                       # coverage brought by this prefetcher (Count)
board.cache_hierarchy.l1dcaches.prefetcher.prefetchers2.pfHitInCache            0                       # number of prefetches hitting in cache (Count)
board.cache_hierarchy.l1dcaches.prefetcher.prefetchers2.pfHitInMSHR            0                       # number of prefetches hitting in a MSHR (Count)
board.cache_hierarchy.l1dcaches.prefetcher.prefetchers2.pfHitInWB            0                       # number of prefetches hit in the Write Buffer (Count)
board.cache_hierarchy.l1dcaches.prefetcher.prefetchers2.pfLate            0                       # number of late prefetches (hitting in cache, MSHR or WB) (Count)
board.cache_hierarchy.l1dcaches.prefetcher.prefetchers2.pfIdentified        16494                       # number of prefetch candidates identified (Count)
board.cache_hierarchy.l1dcaches.prefetcher.prefetchers2.pfBufferHit           97                       # number of redundant prefetches already in prefetch queue (Count)
board.cache_hierarchy.l1dcaches.prefetcher.prefetchers2.pfInCache         6078                       # number of redundant prefetches already in cache/mshr dropped (Count)
board.cache_hierarchy.l1dcaches.prefetcher.prefetchers2.pfRemovedDemand           10                       # number of prefetches dropped due to a demand for the same address (Count)
board.cache_hierarchy.l1dcaches.prefetcher.prefetchers2.pfRemovedFull          105                       # number of prefetches dropped due to prefetch queue size (Count)
board.cache_hierarchy.l1dcaches.prefetcher.prefetchers2.pfSpanPage         1843                       # number of prefetches that crossed the page (Count)
board.cache_hierarchy.l1dcaches.prefetcher.prefetchers2.pfUsefulSpanPage          642                       # number of prefetches that is useful and crossed the page (Count)
board.cache_hierarchy.l1dcaches.prefetcher.prefetchers2.power_state.pwrStateResidencyTicks::UNDEFINED   3435752142                       # Cumulative time (in ticks) in various power states (Tick)
board.cache_hierarchy.l1dcaches.tags.tagsInUse  1016.010640                       # Average ticks per tags in use ((Tick/Count))
board.cache_hierarchy.l1dcaches.tags.totalRefs      3945656                       # Total number of references to valid blocks. (Count)
board.cache_hierarchy.l1dcaches.tags.sampledRefs        35667                       # Sample count of references to valid blocks. (Count)
board.cache_hierarchy.l1dcaches.tags.avgRefs   110.624835                       # Average number of references to valid blocks. ((Count/Count))
board.cache_hierarchy.l1dcaches.tags.warmupTick       157176                       # The tick when the warmup percentage was hit. (Tick)
board.cache_hierarchy.l1dcaches.tags.occupancies::cache_hierarchy.l1dcaches.prefetcher.prefetchers0   507.321073                       # Average occupied blocks per tick, per requestor ((Count/Tick))
board.cache_hierarchy.l1dcaches.tags.occupancies::cache_hierarchy.l1dcaches.prefetcher.prefetchers1    97.998799                       # Average occupied blocks per tick, per requestor ((Count/Tick))
board.cache_hierarchy.l1dcaches.tags.occupancies::cache_hierarchy.l1dcaches.prefetcher.prefetchers2   203.016008                       # Average occupied blocks per tick, per requestor ((Count/Tick))
board.cache_hierarchy.l1dcaches.tags.occupancies::processor.cores.core.data   207.674761                       # Average occupied blocks per tick, per requestor ((Count/Tick))
board.cache_hierarchy.l1dcaches.tags.avgOccs::cache_hierarchy.l1dcaches.prefetcher.prefetchers0     0.495431                       # Average percentage of cache occupancy ((Ratio/Tick))
board.cache_hierarchy.l1dcaches.tags.avgOccs::cache_hierarchy.l1dcaches.prefetcher.prefetchers1     0.095702                       # Average percentage of cache occupancy ((Ratio/Tick))
board.cache_hierarchy.l1dcaches.tags.avgOccs::cache_hierarchy.l1dcaches.prefetcher.prefetchers2     0.198258                       # Average percentage of cache occupancy ((Ratio/Tick))
board.cache_hierarchy.l1dcaches.tags.avgOccs::processor.cores.core.data     0.202807                       # Average percentage of cache occupancy ((Ratio/Tick))
board.cache_hierarchy.l1dcaches.tags.avgOccs::total     0.992198                       # Average percentage of cache occupancy ((Ratio/Tick))
board.cache_hierarchy.l1dcaches.tags.occupanciesTaskId::1022          613                       # Occupied blocks per task id (Count)
board.cache_hierarchy.l1dcaches.tags.occupanciesTaskId::1024          411                       # Occupied blocks per task id (Count)
board.cache_hierarchy.l1dcaches.tags.ageTaskId_1022::0          146                       # Occupied blocks per task id, per block age (Count)
board.cache_hierarchy.l1dcaches.tags.ageTaskId_1022::1          465                       # Occupied blocks per task id, per block age (Count)
board.cache_hierarchy.l1dcaches.tags.ageTaskId_1022::3            2                       # Occupied blocks per task id, per block age (Count)
board.cache_hierarchy.l1dcaches.tags.ageTaskId_1024::0          142                       # Occupied blocks per task id, per block age (Count)
board.cache_hierarchy.l1dcaches.tags.ageTaskId_1024::1          269                       # Occupied blocks per task id, per block age (Count)
board.cache_hierarchy.l1dcaches.tags.ratioOccsTaskId::1022     0.598633                       # Ratio of occupied blocks and all blocks, per task id (Ratio)
board.cache_hierarchy.l1dcaches.tags.ratioOccsTaskId::1024     0.401367                       # Ratio of occupied blocks and all blocks, per task id (Ratio)
board.cache_hierarchy.l1dcaches.tags.tagAccesses     31455763                       # Number of tag accesses (Count)
board.cache_hierarchy.l1dcaches.tags.dataAccesses     31455763                       # Number of data accesses (Count)
board.cache_hierarchy.l1dcaches.tags.power_state.pwrStateResidencyTicks::UNDEFINED   3435752142                       # Cumulative time (in ticks) in various power states (Tick)
board.cache_hierarchy.l1icaches.demandHits::processor.cores.core.inst      2941401                       # number of demand (read+write) hits (Count)
board.cache_hierarchy.l1icaches.demandHits::total      2941401                       # number of demand (read+write) hits (Count)
board.cache_hierarchy.l1icaches.overallHits::processor.cores.core.inst      2941401                       # number of overall hits (Count)
board.cache_hierarchy.l1icaches.overallHits::total      2941401                       # number of overall hits (Count)
board.cache_hierarchy.l1icaches.demandMisses::processor.cores.core.inst         1191                       # number of demand (read+write) misses (Count)
board.cache_hierarchy.l1icaches.demandMisses::total         1191                       # number of demand (read+write) misses (Count)
board.cache_hierarchy.l1icaches.overallMisses::processor.cores.core.inst         1191                       # number of overall misses (Count)
board.cache_hierarchy.l1icaches.overallMisses::total         1191                       # number of overall misses (Count)
board.cache_hierarchy.l1icaches.demandMissLatency::processor.cores.core.inst     42277014                       # number of demand (read+write) miss ticks (Tick)
board.cache_hierarchy.l1icaches.demandMissLatency::total     42277014                       # number of demand (read+write) miss ticks (Tick)
board.cache_hierarchy.l1icaches.overallMissLatency::processor.cores.core.inst     42277014                       # number of overall miss ticks (Tick)
board.cache_hierarchy.l1icaches.overallMissLatency::total     42277014                       # number of overall miss ticks (Tick)
board.cache_hierarchy.l1icaches.demandAccesses::processor.cores.core.inst      2942592                       # number of demand (read+write) accesses (Count)
board.cache_hierarchy.l1icaches.demandAccesses::total      2942592                       # number of demand (read+write) accesses (Count)
board.cache_hierarchy.l1icaches.overallAccesses::processor.cores.core.inst      2942592                       # number of overall (read+write) accesses (Count)
board.cache_hierarchy.l1icaches.overallAccesses::total      2942592                       # number of overall (read+write) accesses (Count)
board.cache_hierarchy.l1icaches.demandMissRate::processor.cores.core.inst     0.000405                       # miss rate for demand accesses (Ratio)
board.cache_hierarchy.l1icaches.demandMissRate::total     0.000405                       # miss rate for demand accesses (Ratio)
board.cache_hierarchy.l1icaches.overallMissRate::processor.cores.core.inst     0.000405                       # miss rate for overall accesses (Ratio)
board.cache_hierarchy.l1icaches.overallMissRate::total     0.000405                       # miss rate for overall accesses (Ratio)
board.cache_hierarchy.l1icaches.demandAvgMissLatency::processor.cores.core.inst 35497.073048                       # average overall miss latency in ticks ((Tick/Count))
board.cache_hierarchy.l1icaches.demandAvgMissLatency::total 35497.073048                       # average overall miss latency in ticks ((Tick/Count))
board.cache_hierarchy.l1icaches.overallAvgMissLatency::processor.cores.core.inst 35497.073048                       # average overall miss latency ((Tick/Count))
board.cache_hierarchy.l1icaches.overallAvgMissLatency::total 35497.073048                       # average overall miss latency ((Tick/Count))
board.cache_hierarchy.l1icaches.blockedCycles::no_mshrs         1142                       # number of cycles access was blocked (Cycle)
board.cache_hierarchy.l1icaches.blockedCycles::no_wbuffers            0                       # number of cycles access was blocked (Cycle)
board.cache_hierarchy.l1icaches.blockedCycles::no_targets          732                       # number of cycles access was blocked (Cycle)
board.cache_hierarchy.l1icaches.blockedCauses::no_mshrs           19                       # number of times access was blocked (Count)
board.cache_hierarchy.l1icaches.blockedCauses::no_wbuffers            0                       # number of times access was blocked (Count)
board.cache_hierarchy.l1icaches.blockedCauses::no_targets            6                       # number of times access was blocked (Count)
board.cache_hierarchy.l1icaches.avgBlocked::no_mshrs    60.105263                       # average number of cycles each access was blocked ((Cycle/Count))
board.cache_hierarchy.l1icaches.avgBlocked::no_wbuffers          nan                       # average number of cycles each access was blocked ((Cycle/Count))
board.cache_hierarchy.l1icaches.avgBlocked::no_targets          122                       # average number of cycles each access was blocked ((Cycle/Count))
board.cache_hierarchy.l1icaches.writebacks::writebacks         4356                       # number of writebacks (Count)
board.cache_hierarchy.l1icaches.writebacks::total         4356                       # number of writebacks (Count)
board.cache_hierarchy.l1icaches.demandMshrHits::processor.cores.core.inst          791                       # number of demand (read+write) MSHR hits (Count)
board.cache_hierarchy.l1icaches.demandMshrHits::total          791                       # number of demand (read+write) MSHR hits (Count)
board.cache_hierarchy.l1icaches.overallMshrHits::processor.cores.core.inst          791                       # number of overall MSHR hits (Count)
board.cache_hierarchy.l1icaches.overallMshrHits::total          791                       # number of overall MSHR hits (Count)
board.cache_hierarchy.l1icaches.demandMshrMisses::processor.cores.core.inst          400                       # number of demand (read+write) MSHR misses (Count)
board.cache_hierarchy.l1icaches.demandMshrMisses::total          400                       # number of demand (read+write) MSHR misses (Count)
board.cache_hierarchy.l1icaches.overallMshrMisses::processor.cores.core.inst          400                       # number of overall MSHR misses (Count)
board.cache_hierarchy.l1icaches.overallMshrMisses::cache_hierarchy.l1icaches.prefetcher.prefetchers0         4433                       # number of overall MSHR misses (Count)
board.cache_hierarchy.l1icaches.overallMshrMisses::cache_hierarchy.l1icaches.prefetcher.prefetchers1          574                       # number of overall MSHR misses (Count)
board.cache_hierarchy.l1icaches.overallMshrMisses::total         5407                       # number of overall MSHR misses (Count)
board.cache_hierarchy.l1icaches.demandMshrMissLatency::processor.cores.core.inst     25641333                       # number of demand (read+write) MSHR miss ticks (Tick)
board.cache_hierarchy.l1icaches.demandMshrMissLatency::total     25641333                       # number of demand (read+write) MSHR miss ticks (Tick)
board.cache_hierarchy.l1icaches.overallMshrMissLatency::processor.cores.core.inst     25641333                       # number of overall MSHR miss ticks (Tick)
board.cache_hierarchy.l1icaches.overallMshrMissLatency::cache_hierarchy.l1icaches.prefetcher.prefetchers0    295375287                       # number of overall MSHR miss ticks (Tick)
board.cache_hierarchy.l1icaches.overallMshrMissLatency::cache_hierarchy.l1icaches.prefetcher.prefetchers1     31697454                       # number of overall MSHR miss ticks (Tick)
board.cache_hierarchy.l1icaches.overallMshrMissLatency::total    352714074                       # number of overall MSHR miss ticks (Tick)
board.cache_hierarchy.l1icaches.demandMshrMissRate::processor.cores.core.inst     0.000136                       # mshr miss ratio for demand accesses (Ratio)
board.cache_hierarchy.l1icaches.demandMshrMissRate::total     0.000136                       # mshr miss ratio for demand accesses (Ratio)
board.cache_hierarchy.l1icaches.overallMshrMissRate::processor.cores.core.inst     0.000136                       # mshr miss ratio for overall accesses (Ratio)
board.cache_hierarchy.l1icaches.overallMshrMissRate::cache_hierarchy.l1icaches.prefetcher.prefetchers0          inf                       # mshr miss ratio for overall accesses (Ratio)
board.cache_hierarchy.l1icaches.overallMshrMissRate::cache_hierarchy.l1icaches.prefetcher.prefetchers1          inf                       # mshr miss ratio for overall accesses (Ratio)
board.cache_hierarchy.l1icaches.overallMshrMissRate::total     0.001837                       # mshr miss ratio for overall accesses (Ratio)
board.cache_hierarchy.l1icaches.demandAvgMshrMissLatency::processor.cores.core.inst 64103.332500                       # average overall mshr miss latency ((Tick/Count))
board.cache_hierarchy.l1icaches.demandAvgMshrMissLatency::total 64103.332500                       # average overall mshr miss latency ((Tick/Count))
board.cache_hierarchy.l1icaches.overallAvgMshrMissLatency::processor.cores.core.inst 64103.332500                       # average overall mshr miss latency ((Tick/Count))
board.cache_hierarchy.l1icaches.overallAvgMshrMissLatency::cache_hierarchy.l1icaches.prefetcher.prefetchers0 66631.014437                       # average overall mshr miss latency ((Tick/Count))
board.cache_hierarchy.l1icaches.overallAvgMshrMissLatency::cache_hierarchy.l1icaches.prefetcher.prefetchers1 55222.045296                       # average overall mshr miss latency ((Tick/Count))
board.cache_hierarchy.l1icaches.overallAvgMshrMissLatency::total 65232.859996                       # average overall mshr miss latency ((Tick/Count))
board.cache_hierarchy.l1icaches.replacements         4356                       # number of replacements (Count)
board.cache_hierarchy.l1icaches.HardPFReq.mshrMisses::cache_hierarchy.l1icaches.prefetcher.prefetchers0         4433                       # number of HardPFReq MSHR misses (Count)
board.cache_hierarchy.l1icaches.HardPFReq.mshrMisses::cache_hierarchy.l1icaches.prefetcher.prefetchers1          574                       # number of HardPFReq MSHR misses (Count)
board.cache_hierarchy.l1icaches.HardPFReq.mshrMisses::total         5007                       # number of HardPFReq MSHR misses (Count)
board.cache_hierarchy.l1icaches.HardPFReq.mshrMissLatency::cache_hierarchy.l1icaches.prefetcher.prefetchers0    295375287                       # number of HardPFReq MSHR miss ticks (Tick)
board.cache_hierarchy.l1icaches.HardPFReq.mshrMissLatency::cache_hierarchy.l1icaches.prefetcher.prefetchers1     31697454                       # number of HardPFReq MSHR miss ticks (Tick)
board.cache_hierarchy.l1icaches.HardPFReq.mshrMissLatency::total    327072741                       # number of HardPFReq MSHR miss ticks (Tick)
board.cache_hierarchy.l1icaches.HardPFReq.mshrMissRate::cache_hierarchy.l1icaches.prefetcher.prefetchers0          inf                       # mshr miss rate for HardPFReq accesses (Ratio)
board.cache_hierarchy.l1icaches.HardPFReq.mshrMissRate::cache_hierarchy.l1icaches.prefetcher.prefetchers1          inf                       # mshr miss rate for HardPFReq accesses (Ratio)
board.cache_hierarchy.l1icaches.HardPFReq.mshrMissRate::total          inf                       # mshr miss rate for HardPFReq accesses (Ratio)
board.cache_hierarchy.l1icaches.HardPFReq.avgMshrMissLatency::cache_hierarchy.l1icaches.prefetcher.prefetchers0 66631.014437                       # average HardPFReq mshr miss latency ((Tick/Count))
board.cache_hierarchy.l1icaches.HardPFReq.avgMshrMissLatency::cache_hierarchy.l1icaches.prefetcher.prefetchers1 55222.045296                       # average HardPFReq mshr miss latency ((Tick/Count))
board.cache_hierarchy.l1icaches.HardPFReq.avgMshrMissLatency::total 65323.095866                       # average HardPFReq mshr miss latency ((Tick/Count))
board.cache_hierarchy.l1icaches.ReadReq.hits::processor.cores.core.inst      2941401                       # number of ReadReq hits (Count)
board.cache_hierarchy.l1icaches.ReadReq.hits::total      2941401                       # number of ReadReq hits (Count)
board.cache_hierarchy.l1icaches.ReadReq.misses::processor.cores.core.inst         1191                       # number of ReadReq misses (Count)
board.cache_hierarchy.l1icaches.ReadReq.misses::total         1191                       # number of ReadReq misses (Count)
board.cache_hierarchy.l1icaches.ReadReq.missLatency::processor.cores.core.inst     42277014                       # number of ReadReq miss ticks (Tick)
board.cache_hierarchy.l1icaches.ReadReq.missLatency::total     42277014                       # number of ReadReq miss ticks (Tick)
board.cache_hierarchy.l1icaches.ReadReq.accesses::processor.cores.core.inst      2942592                       # number of ReadReq accesses(hits+misses) (Count)
board.cache_hierarchy.l1icaches.ReadReq.accesses::total      2942592                       # number of ReadReq accesses(hits+misses) (Count)
board.cache_hierarchy.l1icaches.ReadReq.missRate::processor.cores.core.inst     0.000405                       # miss rate for ReadReq accesses (Ratio)
board.cache_hierarchy.l1icaches.ReadReq.missRate::total     0.000405                       # miss rate for ReadReq accesses (Ratio)
board.cache_hierarchy.l1icaches.ReadReq.avgMissLatency::processor.cores.core.inst 35497.073048                       # average ReadReq miss latency ((Tick/Count))
board.cache_hierarchy.l1icaches.ReadReq.avgMissLatency::total 35497.073048                       # average ReadReq miss latency ((Tick/Count))
board.cache_hierarchy.l1icaches.ReadReq.mshrHits::processor.cores.core.inst          791                       # number of ReadReq MSHR hits (Count)
board.cache_hierarchy.l1icaches.ReadReq.mshrHits::total          791                       # number of ReadReq MSHR hits (Count)
board.cache_hierarchy.l1icaches.ReadReq.mshrMisses::processor.cores.core.inst          400                       # number of ReadReq MSHR misses (Count)
board.cache_hierarchy.l1icaches.ReadReq.mshrMisses::total          400                       # number of ReadReq MSHR misses (Count)
board.cache_hierarchy.l1icaches.ReadReq.mshrMissLatency::processor.cores.core.inst     25641333                       # number of ReadReq MSHR miss ticks (Tick)
board.cache_hierarchy.l1icaches.ReadReq.mshrMissLatency::total     25641333                       # number of ReadReq MSHR miss ticks (Tick)
board.cache_hierarchy.l1icaches.ReadReq.mshrMissRate::processor.cores.core.inst     0.000136                       # mshr miss rate for ReadReq accesses (Ratio)
board.cache_hierarchy.l1icaches.ReadReq.mshrMissRate::total     0.000136                       # mshr miss rate for ReadReq accesses (Ratio)
board.cache_hierarchy.l1icaches.ReadReq.avgMshrMissLatency::processor.cores.core.inst 64103.332500                       # average ReadReq mshr miss latency ((Tick/Count))
board.cache_hierarchy.l1icaches.ReadReq.avgMshrMissLatency::total 64103.332500                       # average ReadReq mshr miss latency ((Tick/Count))
board.cache_hierarchy.l1icaches.power_state.pwrStateResidencyTicks::UNDEFINED   3435752142                       # Cumulative time (in ticks) in various power states (Tick)
board.cache_hierarchy.l1icaches.prefetcher.demandMshrMisses            0                       # demands not covered by prefetchs (Count)
board.cache_hierarchy.l1icaches.prefetcher.pfIssued         7174                       # number of hwpf issued (Count)
board.cache_hierarchy.l1icaches.prefetcher.pfUseful            0                       # number of useful prefetch (Count)
board.cache_hierarchy.l1icaches.prefetcher.pfUsefulButMiss            0                       # number of hit on prefetch but cache block is not in an usable state (Count)
board.cache_hierarchy.l1icaches.prefetcher.accuracy            0                       # accuracy of the prefetcher (Count)
board.cache_hierarchy.l1icaches.prefetcher.coverage          nan                       # coverage brought by this prefetcher (Count)
board.cache_hierarchy.l1icaches.prefetcher.pfHitInCache          608                       # number of prefetches hitting in cache (Count)
board.cache_hierarchy.l1icaches.prefetcher.pfHitInMSHR         1559                       # number of prefetches hitting in a MSHR (Count)
board.cache_hierarchy.l1icaches.prefetcher.pfHitInWB            0                       # number of prefetches hit in the Write Buffer (Count)
board.cache_hierarchy.l1icaches.prefetcher.pfLate         2167                       # number of late prefetches (hitting in cache, MSHR or WB) (Count)
board.cache_hierarchy.l1icaches.prefetcher.power_state.pwrStateResidencyTicks::UNDEFINED   3435752142                       # Cumulative time (in ticks) in various power states (Tick)
board.cache_hierarchy.l1icaches.prefetcher.prefetchers0.demandMshrMisses          400                       # demands not covered by prefetchs (Count)
board.cache_hierarchy.l1icaches.prefetcher.prefetchers0.pfIssued         5023                       # number of hwpf issued (Count)
board.cache_hierarchy.l1icaches.prefetcher.prefetchers0.pfUnused         2796                       # number of HardPF blocks evicted w/o reference (Count)
board.cache_hierarchy.l1icaches.prefetcher.prefetchers0.pfUseful         1010                       # number of useful prefetch (Count)
board.cache_hierarchy.l1icaches.prefetcher.prefetchers0.pfUsefulButMiss            0                       # number of hit on prefetch but cache block is not in an usable state (Count)
board.cache_hierarchy.l1icaches.prefetcher.prefetchers0.accuracy     0.201075                       # accuracy of the prefetcher (Count)
board.cache_hierarchy.l1icaches.prefetcher.prefetchers0.coverage     0.716312                       # coverage brought by this prefetcher (Count)
board.cache_hierarchy.l1icaches.prefetcher.prefetchers0.pfHitInCache            0                       # number of prefetches hitting in cache (Count)
board.cache_hierarchy.l1icaches.prefetcher.prefetchers0.pfHitInMSHR            0                       # number of prefetches hitting in a MSHR (Count)
board.cache_hierarchy.l1icaches.prefetcher.prefetchers0.pfHitInWB            0                       # number of prefetches hit in the Write Buffer (Count)
board.cache_hierarchy.l1icaches.prefetcher.prefetchers0.pfLate            0                       # number of late prefetches (hitting in cache, MSHR or WB) (Count)
board.cache_hierarchy.l1icaches.prefetcher.prefetchers0.fdipInsertions            0                       # Number of notifications from an insertion in the FTQ (Count)
board.cache_hierarchy.l1icaches.prefetcher.prefetchers0.pfIdentified      9997418                       # Number of prefetches identified. (Count)
board.cache_hierarchy.l1icaches.prefetcher.prefetchers0.pfSquashed        20504                       # Number of prefetches squashed. (Count)
board.cache_hierarchy.l1icaches.prefetcher.prefetchers0.pfInPFQ        22210                       # Number of prefetches hit in the prefetch queue (Count)
board.cache_hierarchy.l1icaches.prefetcher.prefetchers0.pfInTQ            0                       # Number of prefetches hit in the translation queue (Count)
board.cache_hierarchy.l1icaches.prefetcher.prefetchers0.pfInCache      9970359                       # Number of prefetches hit in in cache (Count)
board.cache_hierarchy.l1icaches.prefetcher.prefetchers0.pfInCachePrefetched            0                       # Number of prefetches hit in cache but prefetched (Count)
board.cache_hierarchy.l1icaches.prefetcher.prefetchers0.pfPacketsCreated        25531                       # Number of prefetch packets created (Count)
board.cache_hierarchy.l1icaches.prefetcher.prefetchers0.pfCandidatesAdded        25531                       # Number of prefetch candidates added to the prefetch queue (Count)
board.cache_hierarchy.l1icaches.prefetcher.prefetchers0.translationFail         1528                       # Number of prefetches that failed translation (Count)
board.cache_hierarchy.l1icaches.prefetcher.prefetchers0.translationSuccess      9995890                       # Number of prefetches that succeeded translation (Count)
board.cache_hierarchy.l1icaches.prefetcher.prefetchers0.pfqSizeDistAtNotify::samples      9997418                       # Distribution of the prefetch queue size at the time of notification of a new fetch target (Count)
board.cache_hierarchy.l1icaches.prefetcher.prefetchers0.pfqSizeDistAtNotify::mean     0.036612                       # Distribution of the prefetch queue size at the time of notification of a new fetch target (Count)
board.cache_hierarchy.l1icaches.prefetcher.prefetchers0.pfqSizeDistAtNotify::stdev     0.798016                       # Distribution of the prefetch queue size at the time of notification of a new fetch target (Count)
board.cache_hierarchy.l1icaches.prefetcher.prefetchers0.pfqSizeDistAtNotify::underflows            0      0.00%      0.00% # Distribution of the prefetch queue size at the time of notification of a new fetch target (Count)
board.cache_hierarchy.l1icaches.prefetcher.prefetchers0.pfqSizeDistAtNotify::0-3      9971947     99.75%     99.75% # Distribution of the prefetch queue size at the time of notification of a new fetch target (Count)
board.cache_hierarchy.l1icaches.prefetcher.prefetchers0.pfqSizeDistAtNotify::4-7         6768      0.07%     99.81% # Distribution of the prefetch queue size at the time of notification of a new fetch target (Count)
board.cache_hierarchy.l1icaches.prefetcher.prefetchers0.pfqSizeDistAtNotify::8-11         5277      0.05%     99.87% # Distribution of the prefetch queue size at the time of notification of a new fetch target (Count)
board.cache_hierarchy.l1icaches.prefetcher.prefetchers0.pfqSizeDistAtNotify::12-15         4128      0.04%     99.91% # Distribution of the prefetch queue size at the time of notification of a new fetch target (Count)
board.cache_hierarchy.l1icaches.prefetcher.prefetchers0.pfqSizeDistAtNotify::16-19         3238      0.03%     99.94% # Distribution of the prefetch queue size at the time of notification of a new fetch target (Count)
board.cache_hierarchy.l1icaches.prefetcher.prefetchers0.pfqSizeDistAtNotify::20-23         2619      0.03%     99.97% # Distribution of the prefetch queue size at the time of notification of a new fetch target (Count)
board.cache_hierarchy.l1icaches.prefetcher.prefetchers0.pfqSizeDistAtNotify::24-27         1834      0.02%     99.98% # Distribution of the prefetch queue size at the time of notification of a new fetch target (Count)
board.cache_hierarchy.l1icaches.prefetcher.prefetchers0.pfqSizeDistAtNotify::28-31         1008      0.01%     99.99% # Distribution of the prefetch queue size at the time of notification of a new fetch target (Count)
board.cache_hierarchy.l1icaches.prefetcher.prefetchers0.pfqSizeDistAtNotify::32-35          560      0.01%    100.00% # Distribution of the prefetch queue size at the time of notification of a new fetch target (Count)
board.cache_hierarchy.l1icaches.prefetcher.prefetchers0.pfqSizeDistAtNotify::36-39           11      0.00%    100.00% # Distribution of the prefetch queue size at the time of notification of a new fetch target (Count)
board.cache_hierarchy.l1icaches.prefetcher.prefetchers0.pfqSizeDistAtNotify::40-43           10      0.00%    100.00% # Distribution of the prefetch queue size at the time of notification of a new fetch target (Count)
board.cache_hierarchy.l1icaches.prefetcher.prefetchers0.pfqSizeDistAtNotify::44-47            9      0.00%    100.00% # Distribution of the prefetch queue size at the time of notification of a new fetch target (Count)
board.cache_hierarchy.l1icaches.prefetcher.prefetchers0.pfqSizeDistAtNotify::48-51            6      0.00%    100.00% # Distribution of the prefetch queue size at the time of notification of a new fetch target (Count)
board.cache_hierarchy.l1icaches.prefetcher.prefetchers0.pfqSizeDistAtNotify::52-55            3      0.00%    100.00% # Distribution of the prefetch queue size at the time of notification of a new fetch target (Count)
board.cache_hierarchy.l1icaches.prefetcher.prefetchers0.pfqSizeDistAtNotify::56-59            0      0.00%    100.00% # Distribution of the prefetch queue size at the time of notification of a new fetch target (Count)
board.cache_hierarchy.l1icaches.prefetcher.prefetchers0.pfqSizeDistAtNotify::60-63            0      0.00%    100.00% # Distribution of the prefetch queue size at the time of notification of a new fetch target (Count)
board.cache_hierarchy.l1icaches.prefetcher.prefetchers0.pfqSizeDistAtNotify::64            0      0.00%    100.00% # Distribution of the prefetch queue size at the time of notification of a new fetch target (Count)
board.cache_hierarchy.l1icaches.prefetcher.prefetchers0.pfqSizeDistAtNotify::overflows            0      0.00%    100.00% # Distribution of the prefetch queue size at the time of notification of a new fetch target (Count)
board.cache_hierarchy.l1icaches.prefetcher.prefetchers0.pfqSizeDistAtNotify::min_value            0                       # Distribution of the prefetch queue size at the time of notification of a new fetch target (Count)
board.cache_hierarchy.l1icaches.prefetcher.prefetchers0.pfqSizeDistAtNotify::max_value           54                       # Distribution of the prefetch queue size at the time of notification of a new fetch target (Count)
board.cache_hierarchy.l1icaches.prefetcher.prefetchers0.pfqSizeDistAtNotify::total      9997418                       # Distribution of the prefetch queue size at the time of notification of a new fetch target (Count)
board.cache_hierarchy.l1icaches.prefetcher.prefetchers0.tqSizeDistAtNotify::samples      9997418                       # Distribution of the translation queue size at the time of notification of a new fetch target (Count)
board.cache_hierarchy.l1icaches.prefetcher.prefetchers0.tqSizeDistAtNotify::mean            0                       # Distribution of the translation queue size at the time of notification of a new fetch target (Count)
board.cache_hierarchy.l1icaches.prefetcher.prefetchers0.tqSizeDistAtNotify::stdev            0                       # Distribution of the translation queue size at the time of notification of a new fetch target (Count)
board.cache_hierarchy.l1icaches.prefetcher.prefetchers0.tqSizeDistAtNotify::underflows            0      0.00%      0.00% # Distribution of the translation queue size at the time of notification of a new fetch target (Count)
board.cache_hierarchy.l1icaches.prefetcher.prefetchers0.tqSizeDistAtNotify::0-3      9997418    100.00%    100.00% # Distribution of the translation queue size at the time of notification of a new fetch target (Count)
board.cache_hierarchy.l1icaches.prefetcher.prefetchers0.tqSizeDistAtNotify::4-7            0      0.00%    100.00% # Distribution of the translation queue size at the time of notification of a new fetch target (Count)
board.cache_hierarchy.l1icaches.prefetcher.prefetchers0.tqSizeDistAtNotify::8-11            0      0.00%    100.00% # Distribution of the translation queue size at the time of notification of a new fetch target (Count)
board.cache_hierarchy.l1icaches.prefetcher.prefetchers0.tqSizeDistAtNotify::12-15            0      0.00%    100.00% # Distribution of the translation queue size at the time of notification of a new fetch target (Count)
board.cache_hierarchy.l1icaches.prefetcher.prefetchers0.tqSizeDistAtNotify::16-19            0      0.00%    100.00% # Distribution of the translation queue size at the time of notification of a new fetch target (Count)
board.cache_hierarchy.l1icaches.prefetcher.prefetchers0.tqSizeDistAtNotify::20-23            0      0.00%    100.00% # Distribution of the translation queue size at the time of notification of a new fetch target (Count)
board.cache_hierarchy.l1icaches.prefetcher.prefetchers0.tqSizeDistAtNotify::24-27            0      0.00%    100.00% # Distribution of the translation queue size at the time of notification of a new fetch target (Count)
board.cache_hierarchy.l1icaches.prefetcher.prefetchers0.tqSizeDistAtNotify::28-31            0      0.00%    100.00% # Distribution of the translation queue size at the time of notification of a new fetch target (Count)
board.cache_hierarchy.l1icaches.prefetcher.prefetchers0.tqSizeDistAtNotify::32-35            0      0.00%    100.00% # Distribution of the translation queue size at the time of notification of a new fetch target (Count)
board.cache_hierarchy.l1icaches.prefetcher.prefetchers0.tqSizeDistAtNotify::36-39            0      0.00%    100.00% # Distribution of the translation queue size at the time of notification of a new fetch target (Count)
board.cache_hierarchy.l1icaches.prefetcher.prefetchers0.tqSizeDistAtNotify::40-43            0      0.00%    100.00% # Distribution of the translation queue size at the time of notification of a new fetch target (Count)
board.cache_hierarchy.l1icaches.prefetcher.prefetchers0.tqSizeDistAtNotify::44-47            0      0.00%    100.00% # Distribution of the translation queue size at the time of notification of a new fetch target (Count)
board.cache_hierarchy.l1icaches.prefetcher.prefetchers0.tqSizeDistAtNotify::48-51            0      0.00%    100.00% # Distribution of the translation queue size at the time of notification of a new fetch target (Count)
board.cache_hierarchy.l1icaches.prefetcher.prefetchers0.tqSizeDistAtNotify::52-55            0      0.00%    100.00% # Distribution of the translation queue size at the time of notification of a new fetch target (Count)
board.cache_hierarchy.l1icaches.prefetcher.prefetchers0.tqSizeDistAtNotify::56-59            0      0.00%    100.00% # Distribution of the translation queue size at the time of notification of a new fetch target (Count)
board.cache_hierarchy.l1icaches.prefetcher.prefetchers0.tqSizeDistAtNotify::60-63            0      0.00%    100.00% # Distribution of the translation queue size at the time of notification of a new fetch target (Count)
board.cache_hierarchy.l1icaches.prefetcher.prefetchers0.tqSizeDistAtNotify::64            0      0.00%    100.00% # Distribution of the translation queue size at the time of notification of a new fetch target (Count)
board.cache_hierarchy.l1icaches.prefetcher.prefetchers0.tqSizeDistAtNotify::overflows            0      0.00%    100.00% # Distribution of the translation queue size at the time of notification of a new fetch target (Count)
board.cache_hierarchy.l1icaches.prefetcher.prefetchers0.tqSizeDistAtNotify::min_value            0                       # Distribution of the translation queue size at the time of notification of a new fetch target (Count)
board.cache_hierarchy.l1icaches.prefetcher.prefetchers0.tqSizeDistAtNotify::max_value            0                       # Distribution of the translation queue size at the time of notification of a new fetch target (Count)
board.cache_hierarchy.l1icaches.prefetcher.prefetchers0.tqSizeDistAtNotify::total      9997418                       # Distribution of the translation queue size at the time of notification of a new fetch target (Count)
board.cache_hierarchy.l1icaches.prefetcher.prefetchers0.pfqInserts        25531                       # Number of insertions into the prefetch candidate queue (Count)
board.cache_hierarchy.l1icaches.prefetcher.prefetchers0.pfqPops         5023                       # Number of uses into the prefetch candidate queue (Count)
board.cache_hierarchy.l1icaches.prefetcher.prefetchers0.pfqDrops            0                       # Number of drops into the prefetch candidate queue (Count)
board.cache_hierarchy.l1icaches.prefetcher.prefetchers0.tqInserts      9997418                       # Number of insertions into the prefetch translation queue (Count)
board.cache_hierarchy.l1icaches.prefetcher.prefetchers0.tqPops      9997418                       # Number of uses into the prefetch translation queue (Count)
board.cache_hierarchy.l1icaches.prefetcher.prefetchers0.tqDrops            0                       # Number of drops into the prefetch translation queue (Count)
board.cache_hierarchy.l1icaches.prefetcher.prefetchers0.power_state.pwrStateResidencyTicks::UNDEFINED   3435752142                       # Cumulative time (in ticks) in various power states (Tick)
board.cache_hierarchy.l1icaches.prefetcher.prefetchers1.demandMshrMisses          400                       # demands not covered by prefetchs (Count)
board.cache_hierarchy.l1icaches.prefetcher.prefetchers1.pfIssued         2151                       # number of hwpf issued (Count)
board.cache_hierarchy.l1icaches.prefetcher.prefetchers1.pfUnused         2796                       # number of HardPF blocks evicted w/o reference (Count)
board.cache_hierarchy.l1icaches.prefetcher.prefetchers1.pfUseful          253                       # number of useful prefetch (Count)
board.cache_hierarchy.l1icaches.prefetcher.prefetchers1.pfUsefulButMiss            0                       # number of hit on prefetch but cache block is not in an usable state (Count)
board.cache_hierarchy.l1icaches.prefetcher.prefetchers1.accuracy     0.117620                       # accuracy of the prefetcher (Count)
board.cache_hierarchy.l1icaches.prefetcher.prefetchers1.coverage     0.387443                       # coverage brought by this prefetcher (Count)
board.cache_hierarchy.l1icaches.prefetcher.prefetchers1.pfHitInCache            0                       # number of prefetches hitting in cache (Count)
board.cache_hierarchy.l1icaches.prefetcher.prefetchers1.pfHitInMSHR            0                       # number of prefetches hitting in a MSHR (Count)
board.cache_hierarchy.l1icaches.prefetcher.prefetchers1.pfHitInWB            0                       # number of prefetches hit in the Write Buffer (Count)
board.cache_hierarchy.l1icaches.prefetcher.prefetchers1.pfLate            0                       # number of late prefetches (hitting in cache, MSHR or WB) (Count)
board.cache_hierarchy.l1icaches.prefetcher.prefetchers1.pfIdentified         2888                       # number of prefetch candidates identified (Count)
[...]
board.processor.cores.core.lsq0.loadToUse::100-109          579      0.02%     99.89% # Distribution of cycle latency between the first time a load is issued and its completion (Cycle)
board.processor.cores.core.lsq0.loadToUse::110-119           97      0.00%     99.89% # Distribution of cycle latency between the first time a load is issued and its completion (Cycle)
board.processor.cores.core.lsq0.loadToUse::120-129          183      0.01%     99.90% # Distribution of cycle latency between the first time a load is issued and its completion (Cycle)
board.processor.cores.core.lsq0.loadToUse::130-139          225      0.01%     99.91% # Distribution of cycle latency between the first time a load is issued and its completion (Cycle)
board.processor.cores.core.lsq0.loadToUse::140-149          229      0.01%     99.92% # Distribution of cycle latency between the first time a load is issued and its completion (Cycle)
board.processor.cores.core.lsq0.loadToUse::150-159          268      0.01%     99.93% # Distribution of cycle latency between the first time a load is issued and its completion (Cycle)
board.processor.cores.core.lsq0.loadToUse::160-169          505      0.02%     99.95% # Distribution of cycle latency between the first time a load is issued and its completion (Cycle)
board.processor.cores.core.lsq0.loadToUse::170-179           90      0.00%     99.95% # Distribution of cycle latency between the first time a load is issued and its completion (Cycle)
board.processor.cores.core.lsq0.loadToUse::180-189           64      0.00%     99.96% # Distribution of cycle latency between the first time a load is issued and its completion (Cycle)
board.processor.cores.core.lsq0.loadToUse::190-199           79      0.00%     99.96% # Distribution of cycle latency between the first time a load is issued and its completion (Cycle)
board.processor.cores.core.lsq0.loadToUse::200-209          107      0.00%     99.96% # Distribution of cycle latency between the first time a load is issued and its completion (Cycle)
board.processor.cores.core.lsq0.loadToUse::210-219          101      0.00%     99.97% # Distribution of cycle latency between the first time a load is issued and its completion (Cycle)
board.processor.cores.core.lsq0.loadToUse::220-229           74      0.00%     99.97% # Distribution of cycle latency between the first time a load is issued and its completion (Cycle)
board.processor.cores.core.lsq0.loadToUse::230-239           71      0.00%     99.97% # Distribution of cycle latency between the first time a load is issued and its completion (Cycle)
board.processor.cores.core.lsq0.loadToUse::240-249           98      0.00%     99.98% # Distribution of cycle latency between the first time a load is issued and its completion (Cycle)
board.processor.cores.core.lsq0.loadToUse::250-259          122      0.00%     99.98% # Distribution of cycle latency between the first time a load is issued and its completion (Cycle)
board.processor.cores.core.lsq0.loadToUse::260-269           73      0.00%     99.98% # Distribution of cycle latency between the first time a load is issued and its completion (Cycle)
board.processor.cores.core.lsq0.loadToUse::270-279           21      0.00%     99.99% # Distribution of cycle latency between the first time a load is issued and its completion (Cycle)
board.processor.cores.core.lsq0.loadToUse::280-289           23      0.00%     99.99% # Distribution of cycle latency between the first time a load is issued and its completion (Cycle)
board.processor.cores.core.lsq0.loadToUse::290-299           23      0.00%     99.99% # Distribution of cycle latency between the first time a load is issued and its completion (Cycle)
board.processor.cores.core.lsq0.loadToUse::overflows          323      0.01%    100.00% # Distribution of cycle latency between the first time a load is issued and its completion (Cycle)
board.processor.cores.core.lsq0.loadToUse::min_value            2                       # Distribution of cycle latency between the first time a load is issued and its completion (Cycle)
board.processor.cores.core.lsq0.loadToUse::max_value         1208                       # Distribution of cycle latency between the first time a load is issued and its completion (Cycle)
board.processor.cores.core.lsq0.loadToUse::total      2500267                       # Distribution of cycle latency between the first time a load is issued and its completion (Cycle)
board.processor.cores.core.lsq0.addedLoadsAndStores      6475436                       # Number of loads and stores written to the Load Store Queue (Count)
board.processor.cores.core.lsq0.lqAvgOccupancy         0.10                       # Average LQ Occupancy (UsedSlots/TotalSlots) (Ratio)
board.processor.cores.core.lsq0.sqAvgOccupancy         0.11                       # Average SQ Occupancy (UsedSlots/TotalSlots) (Ratio)
board.processor.cores.core.mmu.alignFaults            0                       # Number of MMU faults due to alignment restrictions (Count)
board.processor.cores.core.mmu.prefetchFaults            0                       # Number of MMU faults due to prefetch (Count)
board.processor.cores.core.mmu.domainFaults            0                       # Number of MMU faults due to domain restrictions (Count)
board.processor.cores.core.mmu.permsFaults            0                       # Number of MMU faults due to permissions restrictions (Count)
board.processor.cores.core.mmu.dtb.readHits            0                       # Read hits (Count)
board.processor.cores.core.mmu.dtb.readMisses            0                       # Read misses (Count)
board.processor.cores.core.mmu.dtb.writeHits            0                       # Write hits (Count)
board.processor.cores.core.mmu.dtb.writeMisses            0                       # Write misses (Count)
board.processor.cores.core.mmu.dtb.inserts            0                       # Number of times an entry is inserted into the TLB (Count)
board.processor.cores.core.mmu.dtb.flushTlb            2                       # Number of times a TLB invalidation was requested (Count)
board.processor.cores.core.mmu.dtb.flushedEntries            0                       # Number of entries that have been flushed from TLB (Count)
board.processor.cores.core.mmu.dtb.readAccesses            0                       # Read accesses (Count)
board.processor.cores.core.mmu.dtb.writeAccesses            0                       # Write accesses (Count)
board.processor.cores.core.mmu.dtb.hits             0                       # Total TLB (inst and data) hits (Count)
board.processor.cores.core.mmu.dtb.misses            0                       # Total TLB (inst and data) misses (Count)
board.processor.cores.core.mmu.dtb.accesses            0                       # Total TLB (inst and data) accesses (Count)
board.processor.cores.core.mmu.itb.instHits            0                       # Inst hits (Count)
board.processor.cores.core.mmu.itb.instMisses            0                       # Inst misses (Count)
board.processor.cores.core.mmu.itb.inserts            0                       # Number of times an entry is inserted into the TLB (Count)
board.processor.cores.core.mmu.itb.flushTlb            2                       # Number of times a TLB invalidation was requested (Count)
board.processor.cores.core.mmu.itb.flushedEntries            0                       # Number of entries that have been flushed from TLB (Count)
board.processor.cores.core.mmu.itb.instAccesses            0                       # Inst accesses (Count)
board.processor.cores.core.mmu.itb.hits             0                       # Total TLB (inst and data) hits (Count)
board.processor.cores.core.mmu.itb.misses            0                       # Total TLB (inst and data) misses (Count)
board.processor.cores.core.mmu.itb.accesses            0                       # Total TLB (inst and data) accesses (Count)
board.processor.cores.core.mmu.l2_shared.instHits            0                       # Inst hits (Count)
board.processor.cores.core.mmu.l2_shared.instMisses            0                       # Inst misses (Count)
board.processor.cores.core.mmu.l2_shared.inserts            0                       # Number of times an entry is inserted into the TLB (Count)
board.processor.cores.core.mmu.l2_shared.flushTlb            0                       # Number of times a TLB invalidation was requested (Count)
board.processor.cores.core.mmu.l2_shared.flushedEntries            0                       # Number of entries that have been flushed from TLB (Count)
board.processor.cores.core.mmu.l2_shared.instAccesses            0                       # Inst accesses (Count)
board.processor.cores.core.mmu.l2_shared.hits            0                       # Total TLB (inst and data) hits (Count)
board.processor.cores.core.mmu.l2_shared.misses            0                       # Total TLB (inst and data) misses (Count)
board.processor.cores.core.mmu.l2_shared.accesses            0                       # Total TLB (inst and data) accesses (Count)
board.processor.cores.core.mmu.stage2_dtb.readHits            0                       # Read hits (Count)
board.processor.cores.core.mmu.stage2_dtb.readMisses            0                       # Read misses (Count)
board.processor.cores.core.mmu.stage2_dtb.writeHits            0                       # Write hits (Count)
board.processor.cores.core.mmu.stage2_dtb.writeMisses            0                       # Write misses (Count)
board.processor.cores.core.mmu.stage2_dtb.inserts            0                       # Number of times an entry is inserted into the TLB (Count)
board.processor.cores.core.mmu.stage2_dtb.flushTlb            2                       # Number of times a TLB invalidation was requested (Count)
board.processor.cores.core.mmu.stage2_dtb.flushedEntries            0                       # Number of entries that have been flushed from TLB (Count)
board.processor.cores.core.mmu.stage2_dtb.readAccesses            0                       # Read accesses (Count)
board.processor.cores.core.mmu.stage2_dtb.writeAccesses            0                       # Write accesses (Count)
board.processor.cores.core.mmu.stage2_dtb.hits            0                       # Total TLB (inst and data) hits (Count)
board.processor.cores.core.mmu.stage2_dtb.misses            0                       # Total TLB (inst and data) misses (Count)
board.processor.cores.core.mmu.stage2_dtb.accesses            0                       # Total TLB (inst and data) accesses (Count)
board.processor.cores.core.mmu.stage2_itb.instHits            0                       # Inst hits (Count)
board.processor.cores.core.mmu.stage2_itb.instMisses            0                       # Inst misses (Count)
board.processor.cores.core.mmu.stage2_itb.inserts            0                       # Number of times an entry is inserted into the TLB (Count)
board.processor.cores.core.mmu.stage2_itb.flushTlb            2                       # Number of times a TLB invalidation was requested (Count)
board.processor.cores.core.mmu.stage2_itb.flushedEntries            0                       # Number of entries that have been flushed from TLB (Count)
board.processor.cores.core.mmu.stage2_itb.instAccesses            0                       # Inst accesses (Count)
board.processor.cores.core.mmu.stage2_itb.hits            0                       # Total TLB (inst and data) hits (Count)
board.processor.cores.core.mmu.stage2_itb.misses            0                       # Total TLB (inst and data) misses (Count)
board.processor.cores.core.mmu.stage2_itb.accesses            0                       # Total TLB (inst and data) accesses (Count)
board.processor.cores.core.mmu.walker.instructionWalksS1            0                       # Table walker stage 1 instruction walks requested (Count)
board.processor.cores.core.mmu.walker.instructionWalksS2            0                       # Table walker stage 2 instruction walks requested (Count)
board.processor.cores.core.mmu.walker.dataWalksS1            0                       # Table walker stage 1 data walks requested (Count)
board.processor.cores.core.mmu.walker.dataWalksS2            0                       # Table walker stage 2 data walks requested (Count)
board.processor.cores.core.mmu.walker.requestOrigin_Requested::Data            0                       # Table walker requests started/completed, data/inst (Count)
board.processor.cores.core.mmu.walker.requestOrigin_Requested::Inst            0                       # Table walker requests started/completed, data/inst (Count)
board.processor.cores.core.mmu.walker.requestOrigin_Requested::total            0                       # Table walker requests started/completed, data/inst (Count)
board.processor.cores.core.mmu.walker.requestOrigin_Completed::Data            0                       # Table walker requests started/completed, data/inst (Count)
board.processor.cores.core.mmu.walker.requestOrigin_Completed::Inst            0                       # Table walker requests started/completed, data/inst (Count)
board.processor.cores.core.mmu.walker.requestOrigin_Completed::total            0                       # Table walker requests started/completed, data/inst (Count)
board.processor.cores.core.mmu.walker.requestOrigin::total            0                       # Table walker requests started/completed, data/inst (Count)
board.processor.cores.core.mmu.walker.walks            0                       # Table walker walks requested (Count)
board.processor.cores.core.mmu.walker.power_state.pwrStateResidencyTicks::UNDEFINED   3435752142                       # Cumulative time (in ticks) in various power states (Tick)
board.processor.cores.core.mmu.walker.walk_unit_func_s1.power_state.pwrStateResidencyTicks::UNDEFINED   3435752142                       # Cumulative time (in ticks) in various power states (Tick)
board.processor.cores.core.mmu.walker.walk_unit_func_s2.power_state.pwrStateResidencyTicks::UNDEFINED   3435752142                       # Cumulative time (in ticks) in various power states (Tick)
board.processor.cores.core.mmu.walker.walk_units0.power_state.pwrStateResidencyTicks::UNDEFINED   3435752142                       # Cumulative time (in ticks) in various power states (Tick)
board.processor.cores.core.mmu.walker.walk_units1.power_state.pwrStateResidencyTicks::UNDEFINED   3435752142                       # Cumulative time (in ticks) in various power states (Tick)
board.processor.cores.core.mmu.walker.walk_units2.power_state.pwrStateResidencyTicks::UNDEFINED   3435752142                       # Cumulative time (in ticks) in various power states (Tick)
board.processor.cores.core.mmu.walker.walk_units3.power_state.pwrStateResidencyTicks::UNDEFINED   3435752142                       # Cumulative time (in ticks) in various power states (Tick)
board.processor.cores.core.mmu.walker.walk_units4.power_state.pwrStateResidencyTicks::UNDEFINED   3435752142                       # Cumulative time (in ticks) in various power states (Tick)
board.processor.cores.core.mmu.walker.walk_units5.power_state.pwrStateResidencyTicks::UNDEFINED   3435752142                       # Cumulative time (in ticks) in various power states (Tick)
board.processor.cores.core.mmu.walker.walk_units6.power_state.pwrStateResidencyTicks::UNDEFINED   3435752142                       # Cumulative time (in ticks) in various power states (Tick)
board.processor.cores.core.mmu.walker.walk_units7.power_state.pwrStateResidencyTicks::UNDEFINED   3435752142                       # Cumulative time (in ticks) in various power states (Tick)
board.processor.cores.core.power_state.pwrStateResidencyTicks::ON   3435752142                       # Cumulative time (in ticks) in various power states (Tick)
board.processor.cores.core.rename.status::Running      5797137     56.44%     56.44% # Number of cycles rename is running (Cycle)
board.processor.cores.core.rename.status::Idle      3508173     34.15%     90.59% # Number of cycles rename is idle (Cycle)
board.processor.cores.core.rename.status::Squashing       156355      1.52%     92.11% # Number of cycles rename is squashing (Cycle)
board.processor.cores.core.rename.status::Blocked        81400      0.79%     92.91% # Number of cycles rename is blocking (Cycle)
board.processor.cores.core.rename.status::Unblocking       719239      7.00%     99.91% # Number of cycles rename is unblocking (Cycle)
board.processor.cores.core.rename.status::SerializeStall         9472      0.09%    100.00% # Number of cycles rename stalled for serializing inst (Cycle)
board.processor.cores.core.rename.renamedInsts     23930614                       # Number of instructions processed by rename (Count)
board.processor.cores.core.rename.squashedInsts       500782                       # Number of squashed instructions processed by rename (Count)
board.processor.cores.core.rename.ROBFullEvents        35257                       # Number of times rename has blocked due to ROB full (Count)
board.processor.cores.core.rename.IQFullEvents        23241                       # Number of times rename has blocked due to IQ full (Count)
board.processor.cores.core.rename.SQFullEvents        10662                       # Number of times rename has blocked due to SQ full (Count)
board.processor.cores.core.rename.fullRegistersEvents       673203                       # Number of times there has been no free registers (Count)
board.processor.cores.core.rename.renamedOperands     28378795                       # Number of destination operands rename has renamed (Count)
board.processor.cores.core.rename.lookups     39281593                       # Number of register rename lookups that rename has made (Count)
board.processor.cores.core.rename.intLookups     27871723                       # Number of integer rename lookups (Count)
board.processor.cores.core.rename.vecLookups        28207                       # Number of vector rename lookups (Count)
board.processor.cores.core.rename.vecPredLookups         9805                       # Number of vector predicate rename lookups (Count)
board.processor.cores.core.rename.committedMaps     15448635                       # Number of HB maps that are committed (Count)
board.processor.cores.core.rename.undoneMaps     12930160                       # Number of HB maps that are undone due to squashing (Count)
board.processor.cores.core.rename.serializing          154                       # count of serializing insts renamed (Count)
board.processor.cores.core.rename.tempSerializing          137                       # count of temporary serializing insts renamed (Count)
board.processor.cores.core.rename.skidInsts       708074                       # count of insts added to the skid buffer (Count)
board.processor.cores.core.rename.intReturned      8815384                       # count of registers freed and written back to integer free list (Count)
board.processor.cores.core.rob.reads         32197618                       # The number of ROB reads (Count)
board.processor.cores.core.rob.writes        46195225                       # The number of ROB writes (Count)
board.processor.cores.core.thread_0.numInsts     12299039                       # Number of Instructions committed (Count)
board.processor.cores.core.thread_0.numOps     13340947                       # Number of Ops committed (Count)
board.processor.cores.core.thread_0.numMemRefs      3774138                       # Number of Memory References (Count)
board.processor.cores.core.workload.numSyscalls           45                       # Number of system calls (Count)
board.workload.inst.arm                             0                       # number of arm instructions executed (Count)
board.workload.inst.quiesce                         0                       # number of quiesce instructions executed (Count)

---------- End Simulation Statistics   ----------
