[VMEM] WARNING: physical memory size is smaller than virtual memory size.

*** ChampSim Multicore Out-of-Order Simulator ***
Warmup Instructions: 5000000
Simulation Instructions: 25000000
Number of CPUs: 1
Page size: 4096

Off-chip DRAM Size: 16 GiB Channels: 1 Width: 64-bit Data Rate: 3205 MT/s
Warmup finished CPU 0 instructions: 5000003 cycles: 1406377 cumulative IPC: 3.555 (Simulation time: 00 hr 00 min 19 sec)
Warmup complete CPU 0 instructions: 5000003 cycles: 1406377 cumulative IPC: 3.555 (Simulation time: 00 hr 00 min 19 sec)
Heartbeat CPU 0 instructions: 10000004 cycles: 7086057 heartbeat IPC: 1.411 cumulative IPC: 0.8803 (Simulation time: 00 hr 01 min 02 sec)
Heartbeat CPU 0 instructions: 20000004 cycles: 18422989 heartbeat IPC: 0.8821 cumulative IPC: 0.8815 (Simulation time: 00 hr 02 min 30 sec)
Heartbeat CPU 0 instructions: 30000005 cycles: 29727469 heartbeat IPC: 0.8846 cumulative IPC: 0.8827 (Simulation time: 00 hr 03 min 58 sec)
Simulation finished CPU 0 instructions: 25000002 cycles: 28321092 cumulative IPC: 0.8827 (Simulation time: 00 hr 03 min 58 sec)
Simulation complete CPU 0 instructions: 25000002 cycles: 28321092 cumulative IPC: 0.8827 (Simulation time: 00 hr 03 min 58 sec)

ChampSim completed all CPUs

=== Simulation ===
CPU 0 runs ../../hw2/traces/603.bwaves_s-2931B.champsimtrace.xz

Region of Interest Statistics

CPU 0 cumulative IPC: 0.8827 instructions: 25000002 cycles: 28321092
CPU 0 Branch Prediction Accuracy: 80.62% MPKI: 1.636 Average ROB Occupancy at Mispredict: 300.4
Branch type MPKI
BRANCH_DIRECT_JUMP: 0
BRANCH_INDIRECT: 0
BRANCH_CONDITIONAL: 1.636
BRANCH_DIRECT_CALL: 0
BRANCH_INDIRECT_CALL: 0
BRANCH_RETURN: 0

cpu0->cpu0_STLB TOTAL        ACCESS:      42939 HIT:      37607 MISS:       5332 MSHR_MERGE:          0
cpu0->cpu0_STLB LOAD         ACCESS:      42939 HIT:      37607 MISS:       5332 MSHR_MERGE:          0
cpu0->cpu0_STLB RFO          ACCESS:          0 HIT:          0 MISS:          0 MSHR_MERGE:          0
cpu0->cpu0_STLB PREFETCH     ACCESS:          0 HIT:          0 MISS:          0 MSHR_MERGE:          0
cpu0->cpu0_STLB WRITE        ACCESS:          0 HIT:          0 MISS:          0 MSHR_MERGE:          0
cpu0->cpu0_STLB TRANSLATION  ACCESS:          0 HIT:          0 MISS:          0 MSHR_MERGE:          0
cpu0->cpu0_STLB PREFETCH REQUESTED:          0 ISSUED:          0 USEFUL:          0 USELESS:          0
cpu0->cpu0_STLB AVERAGE MISS LATENCY: 708.5 cycles
cpu0->cpu0_L2C TOTAL        ACCESS:     586749 HIT:     118397 MISS:     468352 MSHR_MERGE:          0
cpu0->cpu0_L2C LOAD         ACCESS:     259099 HIT:      14610 MISS:     244489 MSHR_MERGE:          0
cpu0->cpu0_L2C RFO          ACCESS:     157534 HIT:       8663 MISS:     148871 MSHR_MERGE:          0
cpu0->cpu0_L2C PREFETCH     ACCESS:          0 HIT:          0 MISS:          0 MSHR_MERGE:          0
cpu0->cpu0_L2C WRITE        ACCESS:     159481 HIT:      93821 MISS:      65660 MSHR_MERGE:          0
cpu0->cpu0_L2C TRANSLATION  ACCESS:      10635 HIT:       1303 MISS:       9332 MSHR_MERGE:          0
cpu0->cpu0_L2C PREFETCH REQUESTED:          0 ISSUED:          0 USEFUL:          0 USELESS:          0
cpu0->cpu0_L2C AVERAGE MISS LATENCY: 180.4 cycles
cpu0->cpu0_L1I TOTAL        ACCESS:    2839798 HIT:    2839790 MISS:          8 MSHR_MERGE:          1
cpu0->cpu0_L1I LOAD         ACCESS:    2839798 HIT:    2839790 MISS:          8 MSHR_MERGE:          1
cpu0->cpu0_L1I RFO          ACCESS:          0 HIT:          0 MISS:          0 MSHR_MERGE:          0
cpu0->cpu0_L1I PREFETCH     ACCESS:          0 HIT:          0 MISS:          0 MSHR_MERGE:          0
cpu0->cpu0_L1I WRITE        ACCESS:          0 HIT:          0 MISS:          0 MSHR_MERGE:          0
cpu0->cpu0_L1I TRANSLATION  ACCESS:          0 HIT:          0 MISS:          0 MSHR_MERGE:          0
cpu0->cpu0_L1I PREFETCH REQUESTED:          0 ISSUED:          0 USEFUL:          0 USELESS:          0
cpu0->cpu0_L1I AVERAGE MISS LATENCY: 226.6 cycles
cpu0->cpu0_L1D TOTAL        ACCESS:    8278769 HIT:    7475443 MISS:     803326 MSHR_MERGE:     375897
cpu0->cpu0_L1D LOAD         ACCESS:    3694920 HIT:    3433490 MISS:     261430 MSHR_MERGE:       2331
cpu0->cpu0_L1D RFO          ACCESS:          0 HIT:          0 MISS:          0 MSHR_MERGE:          0
cpu0->cpu0_L1D PREFETCH     ACCESS:          0 HIT:          0 MISS:          0 MSHR_MERGE:          0
cpu0->cpu0_L1D WRITE        ACCESS:    4573168 HIT:    4041907 MISS:     531261 MSHR_MERGE:     373566
cpu0->cpu0_L1D TRANSLATION  ACCESS:      10681 HIT:         46 MISS:      10635 MSHR_MERGE:          0
cpu0->cpu0_L1D PREFETCH REQUESTED:          0 ISSUED:          0 USEFUL:          0 USELESS:          0
cpu0->cpu0_L1D AVERAGE MISS LATENCY: 206.1 cycles
cpu0->cpu0_ITLB TOTAL        ACCESS:    2271249 HIT:    2271249 MISS:          0 MSHR_MERGE:          0
cpu0->cpu0_ITLB LOAD         ACCESS:    2271249 HIT:    2271249 MISS:          0 MSHR_MERGE:          0
cpu0->cpu0_ITLB RFO          ACCESS:          0 HIT:          0 MISS:          0 MSHR_MERGE:          0
cpu0->cpu0_ITLB PREFETCH     ACCESS:          0 HIT:          0 MISS:          0 MSHR_MERGE:          0
cpu0->cpu0_ITLB WRITE        ACCESS:          0 HIT:          0 MISS:          0 MSHR_MERGE:          0
cpu0->cpu0_ITLB TRANSLATION  ACCESS:          0 HIT:          0 MISS:          0 MSHR_MERGE:          0
cpu0->cpu0_ITLB PREFETCH REQUESTED:          0 ISSUED:          0 USEFUL:          0 USELESS:          0
cpu0->cpu0_ITLB AVERAGE MISS LATENCY: - cycles
cpu0->cpu0_DTLB TOTAL        ACCESS:    7583359 HIT:    7535276 MISS:      48083 MSHR_MERGE:       5144
cpu0->cpu0_DTLB LOAD         ACCESS:    7583359 HIT:    7535276 MISS:      48083 MSHR_MERGE:       5144
cpu0->cpu0_DTLB RFO          ACCESS:          0 HIT:          0 MISS:          0 MSHR_MERGE:          0
cpu0->cpu0_DTLB PREFETCH     ACCESS:          0 HIT:          0 MISS:          0 MSHR_MERGE:          0
cpu0->cpu0_DTLB WRITE        ACCESS:          0 HIT:          0 MISS:          0 MSHR_MERGE:          0
cpu0->cpu0_DTLB TRANSLATION  ACCESS:          0 HIT:          0 MISS:          0 MSHR_MERGE:          0
cpu0->cpu0_DTLB PREFETCH REQUESTED:          0 ISSUED:          0 USEFUL:          0 USELESS:          0
cpu0->cpu0_DTLB AVERAGE MISS LATENCY: 93.11 cycles
cpu0->LLC TOTAL        ACCESS:     551343 HIT:     194525 MISS:     356818 MSHR_MERGE:          0
cpu0->LLC LOAD         ACCESS:     244489 HIT:      52077 MISS:     192412 MSHR_MERGE:          0
cpu0->LLC RFO          ACCESS:     148871 HIT:         30 MISS:     148841 MSHR_MERGE:          0
cpu0->LLC PREFETCH     ACCESS:          0 HIT:          0 MISS:          0 MSHR_MERGE:          0
cpu0->LLC WRITE        ACCESS:     148651 HIT:     139239 MISS:       9412 MSHR_MERGE:          0
cpu0->LLC TRANSLATION  ACCESS:       9332 HIT:       3179 MISS:       6153 MSHR_MERGE:          0
cpu0->LLC PREFETCH REQUESTED:          0 ISSUED:          0 USEFUL:          0 USELESS:          0
cpu0->LLC AVERAGE MISS LATENCY: 218.4 cycles

DRAM Statistics

Channel 0 RQ ROW_BUFFER_HIT:          1
  ROW_BUFFER_MISS:     347404
  AVG DBUS CONGESTED CYCLE: 11.51
Channel 0 WQ ROW_BUFFER_HIT:      52988
  ROW_BUFFER_MISS:      96195
  FULL:          0
Channel 0 REFRESHES ISSUED:       2360
