[VMEM] WARNING: physical memory size is smaller than virtual memory size.

*** ChampSim Multicore Out-of-Order Simulator ***
Warmup Instructions: 5000000
Simulation Instructions: 25000000
Number of CPUs: 1
Page size: 4096

Off-chip DRAM Size: 16 GiB Channels: 1 Width: 64-bit Data Rate: 3205 MT/s
Warmup finished CPU 0 instructions: 5000001 cycles: 2094963 cumulative IPC: 2.387 (Simulation time: 00 hr 00 min 23 sec)
Warmup complete CPU 0 instructions: 5000001 cycles: 2094963 cumulative IPC: 2.387 (Simulation time: 00 hr 00 min 23 sec)
Heartbeat CPU 0 instructions: 10000003 cycles: 22890485 heartbeat IPC: 0.4369 cumulative IPC: 0.2404 (Simulation time: 00 hr 03 min 10 sec)
Heartbeat CPU 0 instructions: 20000003 cycles: 63617733 heartbeat IPC: 0.2455 cumulative IPC: 0.2438 (Simulation time: 00 hr 08 min 33 sec)
Simulation finished CPU 0 instructions: 25000001 cycles: 102160065 cumulative IPC: 0.2447 (Simulation time: 00 hr 12 min 46 sec)
Simulation complete CPU 0 instructions: 25000001 cycles: 102160065 cumulative IPC: 0.2447 (Simulation time: 00 hr 12 min 46 sec)

ChampSim completed all CPUs

=== Simulation ===
CPU 0 runs ../../hw2/traces/605.mcf_s-1536B.champsimtrace.xz

Region of Interest Statistics

CPU 0 cumulative IPC: 0.2447 instructions: 25000001 cycles: 102160065
CPU 0 Branch Prediction Accuracy: 99.98% MPKI: 0.03768 Average ROB Occupancy at Mispredict: 190.5
Branch type MPKI
BRANCH_DIRECT_JUMP: 0
BRANCH_INDIRECT: 0
BRANCH_CONDITIONAL: 0.03768
BRANCH_DIRECT_CALL: 0
BRANCH_INDIRECT_CALL: 0
BRANCH_RETURN: 0

cpu0->cpu0_STLB TOTAL        ACCESS:     691071 HIT:     130069 MISS:     561002 MSHR_MERGE:          0
cpu0->cpu0_STLB LOAD         ACCESS:     691071 HIT:     130069 MISS:     561002 MSHR_MERGE:          0
cpu0->cpu0_STLB RFO          ACCESS:          0 HIT:          0 MISS:          0 MSHR_MERGE:          0
cpu0->cpu0_STLB PREFETCH     ACCESS:          0 HIT:          0 MISS:          0 MSHR_MERGE:          0
cpu0->cpu0_STLB WRITE        ACCESS:          0 HIT:          0 MISS:          0 MSHR_MERGE:          0
cpu0->cpu0_STLB TRANSLATION  ACCESS:          0 HIT:          0 MISS:          0 MSHR_MERGE:          0
cpu0->cpu0_STLB PREFETCH REQUESTED:          0 ISSUED:          0 USEFUL:          0 USELESS:          0
cpu0->cpu0_STLB AVERAGE MISS LATENCY: 71.04 cycles
cpu0->cpu0_L2C TOTAL        ACCESS:    2907722 HIT:    1276040 MISS:    1631682 MSHR_MERGE:          0
cpu0->cpu0_L2C LOAD         ACCESS:    1154975 HIT:     375378 MISS:     779597 MSHR_MERGE:          0
cpu0->cpu0_L2C RFO          ACCESS:      71337 HIT:       4326 MISS:      67011 MSHR_MERGE:          0
cpu0->cpu0_L2C PREFETCH     ACCESS:          0 HIT:          0 MISS:          0 MSHR_MERGE:          0
cpu0->cpu0_L2C WRITE        ACCESS:     556355 HIT:     323243 MISS:     233112 MSHR_MERGE:          0
cpu0->cpu0_L2C TRANSLATION  ACCESS:    1125055 HIT:     573093 MISS:     551962 MSHR_MERGE:          0
cpu0->cpu0_L2C PREFETCH REQUESTED:          0 ISSUED:          0 USEFUL:          0 USELESS:          0
cpu0->cpu0_L2C AVERAGE MISS LATENCY: 110.9 cycles
cpu0->cpu0_L1I TOTAL        ACCESS:    5544704 HIT:    5544704 MISS:          0 MSHR_MERGE:          0
cpu0->cpu0_L1I LOAD         ACCESS:    5544704 HIT:    5544704 MISS:          0 MSHR_MERGE:          0
cpu0->cpu0_L1I RFO          ACCESS:          0 HIT:          0 MISS:          0 MSHR_MERGE:          0
cpu0->cpu0_L1I PREFETCH     ACCESS:          0 HIT:          0 MISS:          0 MSHR_MERGE:          0
cpu0->cpu0_L1I WRITE        ACCESS:          0 HIT:          0 MISS:          0 MSHR_MERGE:          0
cpu0->cpu0_L1I TRANSLATION  ACCESS:          0 HIT:          0 MISS:          0 MSHR_MERGE:          0
cpu0->cpu0_L1I PREFETCH REQUESTED:          0 ISSUED:          0 USEFUL:          0 USELESS:          0
cpu0->cpu0_L1I AVERAGE MISS LATENCY: - cycles
cpu0->cpu0_L1D TOTAL        ACCESS:    7287310 HIT:    4107054 MISS:    3180256 MSHR_MERGE:     828867
cpu0->cpu0_L1D LOAD         ACCESS:    4977500 HIT:    2997164 MISS:    1980336 MSHR_MERGE:     825361
cpu0->cpu0_L1D RFO          ACCESS:          0 HIT:          0 MISS:          0 MSHR_MERGE:          0
cpu0->cpu0_L1D PREFETCH     ACCESS:          0 HIT:          0 MISS:          0 MSHR_MERGE:          0
cpu0->cpu0_L1D WRITE        ACCESS:    1108563 HIT:    1037170 MISS:      71393 MSHR_MERGE:         34
cpu0->cpu0_L1D TRANSLATION  ACCESS:    1201247 HIT:      72720 MISS:    1128527 MSHR_MERGE:       3472
cpu0->cpu0_L1D PREFETCH REQUESTED:          0 ISSUED:          0 USEFUL:          0 USELESS:          0
cpu0->cpu0_L1D AVERAGE MISS LATENCY: 85.28 cycles
cpu0->cpu0_ITLB TOTAL        ACCESS:    4968983 HIT:    4968983 MISS:          0 MSHR_MERGE:          0
cpu0->cpu0_ITLB LOAD         ACCESS:    4968983 HIT:    4968983 MISS:          0 MSHR_MERGE:          0
cpu0->cpu0_ITLB RFO          ACCESS:          0 HIT:          0 MISS:          0 MSHR_MERGE:          0
cpu0->cpu0_ITLB PREFETCH     ACCESS:          0 HIT:          0 MISS:          0 MSHR_MERGE:          0
cpu0->cpu0_ITLB WRITE        ACCESS:          0 HIT:          0 MISS:          0 MSHR_MERGE:          0
cpu0->cpu0_ITLB TRANSLATION  ACCESS:          0 HIT:          0 MISS:          0 MSHR_MERGE:          0
cpu0->cpu0_ITLB PREFETCH REQUESTED:          0 ISSUED:          0 USEFUL:          0 USELESS:          0
cpu0->cpu0_ITLB AVERAGE MISS LATENCY: - cycles
cpu0->cpu0_DTLB TOTAL        ACCESS:    6044332 HIT:    4364975 MISS:    1679357 MSHR_MERGE:     988286
cpu0->cpu0_DTLB LOAD         ACCESS:    6044332 HIT:    4364975 MISS:    1679357 MSHR_MERGE:     988286
cpu0->cpu0_DTLB RFO          ACCESS:          0 HIT:          0 MISS:          0 MSHR_MERGE:          0
cpu0->cpu0_DTLB PREFETCH     ACCESS:          0 HIT:          0 MISS:          0 MSHR_MERGE:          0
cpu0->cpu0_DTLB WRITE        ACCESS:          0 HIT:          0 MISS:          0 MSHR_MERGE:          0
cpu0->cpu0_DTLB TRANSLATION  ACCESS:          0 HIT:          0 MISS:          0 MSHR_MERGE:          0
cpu0->cpu0_DTLB PREFETCH REQUESTED:          0 ISSUED:          0 USEFUL:          0 USELESS:          0
cpu0->cpu0_DTLB AVERAGE MISS LATENCY: 63.48 cycles
cpu0->LLC TOTAL        ACCESS:    1952923 HIT:    1254736 MISS:     698187 MSHR_MERGE:          0
cpu0->LLC LOAD         ACCESS:     779597 HIT:     146243 MISS:     633354 MSHR_MERGE:          0
cpu0->LLC RFO          ACCESS:      67011 HIT:      67006 MISS:          5 MSHR_MERGE:          0
cpu0->LLC PREFETCH     ACCESS:          0 HIT:          0 MISS:          0 MSHR_MERGE:          0
cpu0->LLC WRITE        ACCESS:     554353 HIT:     530701 MISS:      23652 MSHR_MERGE:          0
cpu0->LLC TRANSLATION  ACCESS:     551962 HIT:     510786 MISS:      41176 MSHR_MERGE:          0
cpu0->LLC PREFETCH REQUESTED:          0 ISSUED:          0 USEFUL:          0 USELESS:          0
cpu0->LLC AVERAGE MISS LATENCY: 227.2 cycles

DRAM Statistics

Channel 0 RQ ROW_BUFFER_HIT:        151
  ROW_BUFFER_MISS:     674383
  AVG DBUS CONGESTED CYCLE: 5.732
Channel 0 WQ ROW_BUFFER_HIT:     181298
  ROW_BUFFER_MISS:     372691
  FULL:          0
Channel 0 REFRESHES ISSUED:       8513
