[VMEM] WARNING: physical memory size is smaller than virtual memory size.

*** ChampSim Multicore Out-of-Order Simulator ***
Warmup Instructions: 5000000
Simulation Instructions: 25000000
Number of CPUs: 1
Page size: 4096

Off-chip DRAM Size: 16 GiB Channels: 1 Width: 64-bit Data Rate: 3205 MT/s
Warmup finished CPU 0 instructions: 5000000 cycles: 1500405 cumulative IPC: 3.332 (Simulation time: 00 hr 00 min 22 sec)
Warmup complete CPU 0 instructions: 5000000 cycles: 1500405 cumulative IPC: 3.332 (Simulation time: 00 hr 00 min 22 sec)
Heartbeat CPU 0 instructions: 10000002 cycles: 4515657 heartbeat IPC: 2.215 cumulative IPC: 1.658 (Simulation time: 00 hr 00 min 54 sec)
Heartbeat CPU 0 instructions: 20000002 cycles: 10844670 heartbeat IPC: 1.58 cumulative IPC: 1.605 (Simulation time: 00 hr 02 min 00 sec)
Simulation finished CPU 0 instructions: 25000001 cycles: 15653667 cumulative IPC: 1.597 (Simulation time: 00 hr 03 min 09 sec)
Simulation complete CPU 0 instructions: 25000001 cycles: 15653667 cumulative IPC: 1.597 (Simulation time: 00 hr 03 min 09 sec)

ChampSim completed all CPUs

=== Simulation ===
CPU 0 runs ../../hw2/traces/607.cactuBSSN_s-2421B.champsimtrace.xz

Region of Interest Statistics

CPU 0 cumulative IPC: 1.597 instructions: 25000001 cycles: 15653667
CPU 0 Branch Prediction Accuracy: 91.63% MPKI: 0.7521 Average ROB Occupancy at Mispredict: 333.7
Branch type MPKI
BRANCH_DIRECT_JUMP: 0.00132
BRANCH_INDIRECT: 8e-05
BRANCH_CONDITIONAL: 0.3843
BRANCH_DIRECT_CALL: 0.00156
BRANCH_INDIRECT_CALL: 0
BRANCH_RETURN: 0.3649

cpu0->cpu0_STLB TOTAL        ACCESS:     962149 HIT:     961122 MISS:       1027 MSHR_MERGE:          0
cpu0->cpu0_STLB LOAD         ACCESS:     962149 HIT:     961122 MISS:       1027 MSHR_MERGE:          0
cpu0->cpu0_STLB RFO          ACCESS:          0 HIT:          0 MISS:          0 MSHR_MERGE:          0
cpu0->cpu0_STLB PREFETCH     ACCESS:          0 HIT:          0 MISS:          0 MSHR_MERGE:          0
cpu0->cpu0_STLB WRITE        ACCESS:          0 HIT:          0 MISS:          0 MSHR_MERGE:          0
cpu0->cpu0_STLB TRANSLATION  ACCESS:          0 HIT:          0 MISS:          0 MSHR_MERGE:          0
cpu0->cpu0_STLB PREFETCH REQUESTED:          0 ISSUED:          0 USEFUL:          0 USELESS:          0
cpu0->cpu0_STLB AVERAGE MISS LATENCY: 817.7 cycles
cpu0->cpu0_L2C TOTAL        ACCESS:    2661791 HIT:    2100670 MISS:     561121 MSHR_MERGE:          0
cpu0->cpu0_L2C LOAD         ACCESS:    2336527 HIT:    1883279 MISS:     453248 MSHR_MERGE:          0
cpu0->cpu0_L2C RFO          ACCESS:     153235 HIT:      88594 MISS:      64641 MSHR_MERGE:          0
cpu0->cpu0_L2C PREFETCH     ACCESS:          0 HIT:          0 MISS:          0 MSHR_MERGE:          0
cpu0->cpu0_L2C WRITE        ACCESS:     169475 HIT:     128791 MISS:      40684 MSHR_MERGE:          0
cpu0->cpu0_L2C TRANSLATION  ACCESS:       2554 HIT:          6 MISS:       2548 MSHR_MERGE:          0
cpu0->cpu0_L2C PREFETCH REQUESTED:          0 ISSUED:          0 USEFUL:          0 USELESS:          0
cpu0->cpu0_L2C AVERAGE MISS LATENCY: 40.63 cycles
cpu0->cpu0_L1I TOTAL        ACCESS:    5587240 HIT:    4311808 MISS:    1275432 MSHR_MERGE:     625325
cpu0->cpu0_L1I LOAD         ACCESS:    5587240 HIT:    4311808 MISS:    1275432 MSHR_MERGE:     625325
cpu0->cpu0_L1I RFO          ACCESS:          0 HIT:          0 MISS:          0 MSHR_MERGE:          0
cpu0->cpu0_L1I PREFETCH     ACCESS:          0 HIT:          0 MISS:          0 MSHR_MERGE:          0
cpu0->cpu0_L1I WRITE        ACCESS:          0 HIT:          0 MISS:          0 MSHR_MERGE:          0
cpu0->cpu0_L1I TRANSLATION  ACCESS:          0 HIT:          0 MISS:          0 MSHR_MERGE:          0
cpu0->cpu0_L1I PREFETCH REQUESTED:          0 ISSUED:          0 USEFUL:          0 USELESS:          0
cpu0->cpu0_L1I AVERAGE MISS LATENCY: 7.198 cycles
cpu0->cpu0_L1D TOTAL        ACCESS:    9663433 HIT:    7638328 MISS:    2025105 MSHR_MERGE:     182859
cpu0->cpu0_L1D LOAD         ACCESS:    7651614 HIT:    5799851 MISS:    1851763 MSHR_MERGE:     165315
cpu0->cpu0_L1D RFO          ACCESS:          0 HIT:          0 MISS:          0 MSHR_MERGE:          0
cpu0->cpu0_L1D PREFETCH     ACCESS:          0 HIT:          0 MISS:          0 MSHR_MERGE:          0
cpu0->cpu0_L1D WRITE        ACCESS:    2009247 HIT:    1838462 MISS:     170785 MSHR_MERGE:      17541
cpu0->cpu0_L1D TRANSLATION  ACCESS:       2572 HIT:         15 MISS:       2557 MSHR_MERGE:          3
cpu0->cpu0_L1D PREFETCH REQUESTED:          0 ISSUED:          0 USEFUL:          0 USELESS:          0
cpu0->cpu0_L1D AVERAGE MISS LATENCY: 21.55 cycles
cpu0->cpu0_ITLB TOTAL        ACCESS:    4463355 HIT:    4463340 MISS:         15 MSHR_MERGE:          5
cpu0->cpu0_ITLB LOAD         ACCESS:    4463355 HIT:    4463340 MISS:         15 MSHR_MERGE:          5
cpu0->cpu0_ITLB RFO          ACCESS:          0 HIT:          0 MISS:          0 MSHR_MERGE:          0
cpu0->cpu0_ITLB PREFETCH     ACCESS:          0 HIT:          0 MISS:          0 MSHR_MERGE:          0
cpu0->cpu0_ITLB WRITE        ACCESS:          0 HIT:          0 MISS:          0 MSHR_MERGE:          0
cpu0->cpu0_ITLB TRANSLATION  ACCESS:          0 HIT:          0 MISS:          0 MSHR_MERGE:          0
cpu0->cpu0_ITLB PREFETCH REQUESTED:          0 ISSUED:          0 USEFUL:          0 USELESS:          0
cpu0->cpu0_ITLB AVERAGE MISS LATENCY: 822.9 cycles
cpu0->cpu0_DTLB TOTAL        ACCESS:    9133398 HIT:    8068053 MISS:    1065345 MSHR_MERGE:     103206
cpu0->cpu0_DTLB LOAD         ACCESS:    9133398 HIT:    8068053 MISS:    1065345 MSHR_MERGE:     103206
cpu0->cpu0_DTLB RFO          ACCESS:          0 HIT:          0 MISS:          0 MSHR_MERGE:          0
cpu0->cpu0_DTLB PREFETCH     ACCESS:          0 HIT:          0 MISS:          0 MSHR_MERGE:          0
cpu0->cpu0_DTLB WRITE        ACCESS:          0 HIT:          0 MISS:          0 MSHR_MERGE:          0
cpu0->cpu0_DTLB TRANSLATION  ACCESS:          0 HIT:          0 MISS:          0 MSHR_MERGE:          0
cpu0->cpu0_DTLB PREFETCH REQUESTED:          0 ISSUED:          0 USEFUL:          0 USELESS:          0
cpu0->cpu0_DTLB AVERAGE MISS LATENCY: 5.909 cycles
cpu0->LLC TOTAL        ACCESS:     584674 HIT:     517269 MISS:      67405 MSHR_MERGE:          0
cpu0->LLC LOAD         ACCESS:     453248 HIT:     402210 MISS:      51038 MSHR_MERGE:          0
cpu0->LLC RFO          ACCESS:      64320 HIT:      49580 MISS:      14740 MSHR_MERGE:          0
cpu0->LLC PREFETCH     ACCESS:          0 HIT:          0 MISS:          0 MSHR_MERGE:          0
cpu0->LLC WRITE        ACCESS:      64558 HIT:      64558 MISS:          0 MSHR_MERGE:          0
cpu0->LLC TRANSLATION  ACCESS:       2548 HIT:        921 MISS:       1627 MSHR_MERGE:          0
cpu0->LLC PREFETCH REQUESTED:          0 ISSUED:          0 USEFUL:          0 USELESS:          0
cpu0->LLC AVERAGE MISS LATENCY: 218.8 cycles

DRAM Statistics

Channel 0 RQ ROW_BUFFER_HIT:         64
  ROW_BUFFER_MISS:      67341
  AVG DBUS CONGESTED CYCLE: 10.27
Channel 0 WQ ROW_BUFFER_HIT:        748
  ROW_BUFFER_MISS:      10306
  FULL:          0
Channel 0 REFRESHES ISSUED:       1304
