[VMEM] WARNING: physical memory size is smaller than virtual memory size.

*** ChampSim Multicore Out-of-Order Simulator ***
Warmup Instructions: 5000000
Simulation Instructions: 25000000
Number of CPUs: 1
Page size: 4096

Off-chip DRAM Size: 16 GiB Channels: 1 Width: 64-bit Data Rate: 3205 MT/s
Warmup finished CPU 0 instructions: 5000001 cycles: 1794348 cumulative IPC: 2.787 (Simulation time: 00 hr 00 min 21 sec)
Warmup complete CPU 0 instructions: 5000001 cycles: 1794348 cumulative IPC: 2.787 (Simulation time: 00 hr 00 min 21 sec)
Heartbeat CPU 0 instructions: 10000001 cycles: 12953088 heartbeat IPC: 0.772 cumulative IPC: 0.4481 (Simulation time: 00 hr 02 min 03 sec)
Heartbeat CPU 0 instructions: 20000001 cycles: 34802178 heartbeat IPC: 0.4577 cumulative IPC: 0.4544 (Simulation time: 00 hr 05 min 25 sec)
Heartbeat CPU 0 instructions: 30000003 cycles: 56264643 heartbeat IPC: 0.4659 cumulative IPC: 0.459 (Simulation time: 00 hr 08 min 38 sec)
Simulation finished CPU 0 instructions: 25000002 cycles: 54470295 cumulative IPC: 0.459 (Simulation time: 00 hr 08 min 38 sec)
Simulation complete CPU 0 instructions: 25000002 cycles: 54470295 cumulative IPC: 0.459 (Simulation time: 00 hr 08 min 38 sec)

ChampSim completed all CPUs

=== Simulation ===
CPU 0 runs ../../hw2/traces/619.lbm_s-2676B.champsimtrace.xz

Region of Interest Statistics

CPU 0 cumulative IPC: 0.459 instructions: 25000002 cycles: 54470295
CPU 0 Branch Prediction Accuracy: 95.63% MPKI: 0.7376 Average ROB Occupancy at Mispredict: 211.6
Branch type MPKI
BRANCH_DIRECT_JUMP: 0
BRANCH_INDIRECT: 0
BRANCH_CONDITIONAL: 0.7376
BRANCH_DIRECT_CALL: 0
BRANCH_INDIRECT_CALL: 0
BRANCH_RETURN: 0

cpu0->cpu0_STLB TOTAL        ACCESS:      31491 HIT:      14402 MISS:      17089 MSHR_MERGE:          0
cpu0->cpu0_STLB LOAD         ACCESS:      31491 HIT:      14402 MISS:      17089 MSHR_MERGE:          0
cpu0->cpu0_STLB RFO          ACCESS:          0 HIT:          0 MISS:          0 MSHR_MERGE:          0
cpu0->cpu0_STLB PREFETCH     ACCESS:          0 HIT:          0 MISS:          0 MSHR_MERGE:          0
cpu0->cpu0_STLB WRITE        ACCESS:          0 HIT:          0 MISS:          0 MSHR_MERGE:          0
cpu0->cpu0_STLB TRANSLATION  ACCESS:          0 HIT:          0 MISS:          0 MSHR_MERGE:          0
cpu0->cpu0_STLB PREFETCH REQUESTED:          0 ISSUED:          0 USEFUL:          0 USELESS:          0
cpu0->cpu0_STLB AVERAGE MISS LATENCY: 921.1 cycles
cpu0->cpu0_L2C TOTAL        ACCESS:    3375727 HIT:     605759 MISS:    2769968 MSHR_MERGE:          0
cpu0->cpu0_L2C LOAD         ACCESS:     273389 HIT:          2 MISS:     273387 MSHR_MERGE:          0
cpu0->cpu0_L2C RFO          ACCESS:    1541529 HIT:      97085 MISS:    1444444 MSHR_MERGE:          0
cpu0->cpu0_L2C PREFETCH     ACCESS:          0 HIT:          0 MISS:          0 MSHR_MERGE:          0
cpu0->cpu0_L2C WRITE        ACCESS:    1541565 HIT:     508672 MISS:    1032893 MSHR_MERGE:          0
cpu0->cpu0_L2C TRANSLATION  ACCESS:      19244 HIT:          0 MISS:      19244 MSHR_MERGE:          0
cpu0->cpu0_L2C PREFETCH REQUESTED:          0 ISSUED:          0 USEFUL:          0 USELESS:          0
cpu0->cpu0_L2C AVERAGE MISS LATENCY: 203.1 cycles
cpu0->cpu0_L1I TOTAL        ACCESS:    3957834 HIT:    3957834 MISS:          0 MSHR_MERGE:          0
cpu0->cpu0_L1I LOAD         ACCESS:    3957834 HIT:    3957834 MISS:          0 MSHR_MERGE:          0
cpu0->cpu0_L1I RFO          ACCESS:          0 HIT:          0 MISS:          0 MSHR_MERGE:          0
cpu0->cpu0_L1I PREFETCH     ACCESS:          0 HIT:          0 MISS:          0 MSHR_MERGE:          0
cpu0->cpu0_L1I WRITE        ACCESS:          0 HIT:          0 MISS:          0 MSHR_MERGE:          0
cpu0->cpu0_L1I TRANSLATION  ACCESS:          0 HIT:          0 MISS:          0 MSHR_MERGE:          0
cpu0->cpu0_L1I PREFETCH REQUESTED:          0 ISSUED:          0 USEFUL:          0 USELESS:          0
cpu0->cpu0_L1I AVERAGE MISS LATENCY: - cycles
cpu0->cpu0_L1D TOTAL        ACCESS:    6081370 HIT:    3813571 MISS:    2267799 MSHR_MERGE:     433605
cpu0->cpu0_L1D LOAD         ACCESS:    1582753 HIT:     950329 MISS:     632424 MSHR_MERGE:     359035
cpu0->cpu0_L1D RFO          ACCESS:          0 HIT:          0 MISS:          0 MSHR_MERGE:          0
cpu0->cpu0_L1D PREFETCH     ACCESS:          0 HIT:          0 MISS:          0 MSHR_MERGE:          0
cpu0->cpu0_L1D WRITE        ACCESS:    4464421 HIT:    2848290 MISS:    1616131 MSHR_MERGE:      74570
cpu0->cpu0_L1D TRANSLATION  ACCESS:      34196 HIT:      14952 MISS:      19244 MSHR_MERGE:          0
cpu0->cpu0_L1D PREFETCH REQUESTED:          0 ISSUED:          0 USEFUL:          0 USELESS:          0
cpu0->cpu0_L1D AVERAGE MISS LATENCY: 314.1 cycles
cpu0->cpu0_ITLB TOTAL        ACCESS:    2939233 HIT:    2939233 MISS:          0 MSHR_MERGE:          0
cpu0->cpu0_ITLB LOAD         ACCESS:    2939233 HIT:    2939233 MISS:          0 MSHR_MERGE:          0
cpu0->cpu0_ITLB RFO          ACCESS:          0 HIT:          0 MISS:          0 MSHR_MERGE:          0
cpu0->cpu0_ITLB PREFETCH     ACCESS:          0 HIT:          0 MISS:          0 MSHR_MERGE:          0
cpu0->cpu0_ITLB WRITE        ACCESS:          0 HIT:          0 MISS:          0 MSHR_MERGE:          0
cpu0->cpu0_ITLB TRANSLATION  ACCESS:          0 HIT:          0 MISS:          0 MSHR_MERGE:          0
cpu0->cpu0_ITLB PREFETCH REQUESTED:          0 ISSUED:          0 USEFUL:          0 USELESS:          0
cpu0->cpu0_ITLB AVERAGE MISS LATENCY: - cycles
cpu0->cpu0_DTLB TOTAL        ACCESS:    5697525 HIT:    5603522 MISS:      94003 MSHR_MERGE:      62512
cpu0->cpu0_DTLB LOAD         ACCESS:    5697525 HIT:    5603522 MISS:      94003 MSHR_MERGE:      62512
cpu0->cpu0_DTLB RFO          ACCESS:          0 HIT:          0 MISS:          0 MSHR_MERGE:          0
cpu0->cpu0_DTLB PREFETCH     ACCESS:          0 HIT:          0 MISS:          0 MSHR_MERGE:          0
cpu0->cpu0_DTLB WRITE        ACCESS:          0 HIT:          0 MISS:          0 MSHR_MERGE:          0
cpu0->cpu0_DTLB TRANSLATION  ACCESS:          0 HIT:          0 MISS:          0 MSHR_MERGE:          0
cpu0->cpu0_DTLB PREFETCH REQUESTED:          0 ISSUED:          0 USEFUL:          0 USELESS:          0
cpu0->cpu0_DTLB AVERAGE MISS LATENCY: 505.4 cycles
cpu0->LLC TOTAL        ACCESS:    3181525 HIT:    1965632 MISS:    1215893 MSHR_MERGE:          0
cpu0->LLC LOAD         ACCESS:     273387 HIT:         22 MISS:     273365 MSHR_MERGE:          0
cpu0->LLC RFO          ACCESS:    1444442 HIT:     624427 MISS:     820015 MSHR_MERGE:          0
cpu0->LLC PREFETCH     ACCESS:          0 HIT:          0 MISS:          0 MSHR_MERGE:          0
cpu0->LLC WRITE        ACCESS:    1444452 HIT:    1341183 MISS:     103269 MSHR_MERGE:          0
cpu0->LLC TRANSLATION  ACCESS:      19244 HIT:          0 MISS:      19244 MSHR_MERGE:          0
cpu0->LLC PREFETCH REQUESTED:          0 ISSUED:          0 USEFUL:          0 USELESS:          0
cpu0->LLC AVERAGE MISS LATENCY: 437.5 cycles

DRAM Statistics

Channel 0 RQ ROW_BUFFER_HIT:      61056
  ROW_BUFFER_MISS:    1051568
  AVG DBUS CONGESTED CYCLE: 7.327
Channel 0 WQ ROW_BUFFER_HIT:     133468
  ROW_BUFFER_MISS:     727734
  FULL:          0
Channel 0 REFRESHES ISSUED:       4539
