[VMEM] WARNING: physical memory size is smaller than virtual memory size.

*** ChampSim Multicore Out-of-Order Simulator ***
Warmup Instructions: 5000000
Simulation Instructions: 25000000
Number of CPUs: 1
Page size: 4096

Off-chip DRAM Size: 16 GiB Channels: 1 Width: 64-bit Data Rate: 3205 MT/s
Warmup finished CPU 0 instructions: 5000003 cycles: 3490243 cumulative IPC: 1.433 (Simulation time: 00 hr 00 min 36 sec)
Warmup complete CPU 0 instructions: 5000003 cycles: 3490243 cumulative IPC: 1.433 (Simulation time: 00 hr 00 min 36 sec)
Heartbeat CPU 0 instructions: 10000004 cycles: 21580411 heartbeat IPC: 0.4634 cumulative IPC: 0.2764 (Simulation time: 00 hr 02 min 06 sec)
Heartbeat CPU 0 instructions: 20000007 cycles: 58590268 heartbeat IPC: 0.2702 cumulative IPC: 0.2722 (Simulation time: 00 hr 05 min 14 sec)
Simulation finished CPU 0 instructions: 25000001 cycles: 89777197 cumulative IPC: 0.2785 (Simulation time: 00 hr 08 min 03 sec)
Simulation complete CPU 0 instructions: 25000001 cycles: 89777197 cumulative IPC: 0.2785 (Simulation time: 00 hr 08 min 03 sec)

ChampSim completed all CPUs

=== Simulation ===
CPU 0 runs ../../hw2/traces/620.omnetpp_s-141B.champsimtrace.xz

Region of Interest Statistics

CPU 0 cumulative IPC: 0.2785 instructions: 25000001 cycles: 89777197
CPU 0 Branch Prediction Accuracy: 92.89% MPKI: 14.98 Average ROB Occupancy at Mispredict: 42.88
Branch type MPKI
BRANCH_DIRECT_JUMP: 0.8414
BRANCH_INDIRECT: 0.3648
BRANCH_CONDITIONAL: 12.48
BRANCH_DIRECT_CALL: 0.00052
BRANCH_INDIRECT_CALL: 0.8609
BRANCH_RETURN: 0.4358

cpu0->cpu0_STLB TOTAL        ACCESS:     562940 HIT:     442464 MISS:     120476 MSHR_MERGE:          0
cpu0->cpu0_STLB LOAD         ACCESS:     562940 HIT:     442464 MISS:     120476 MSHR_MERGE:          0
cpu0->cpu0_STLB RFO          ACCESS:          0 HIT:          0 MISS:          0 MSHR_MERGE:          0
cpu0->cpu0_STLB PREFETCH     ACCESS:          0 HIT:          0 MISS:          0 MSHR_MERGE:          0
cpu0->cpu0_STLB WRITE        ACCESS:          0 HIT:          0 MISS:          0 MSHR_MERGE:          0
cpu0->cpu0_STLB TRANSLATION  ACCESS:          0 HIT:          0 MISS:          0 MSHR_MERGE:          0
cpu0->cpu0_STLB PREFETCH REQUESTED:          0 ISSUED:          0 USEFUL:          0 USELESS:          0
cpu0->cpu0_STLB AVERAGE MISS LATENCY: 354.9 cycles
cpu0->cpu0_L2C TOTAL        ACCESS:    1018017 HIT:     365368 MISS:     652649 MSHR_MERGE:          0
cpu0->cpu0_L2C LOAD         ACCESS:     451685 HIT:     119023 MISS:     332662 MSHR_MERGE:          0
cpu0->cpu0_L2C RFO          ACCESS:      58108 HIT:      14917 MISS:      43191 MSHR_MERGE:          0
cpu0->cpu0_L2C PREFETCH     ACCESS:          0 HIT:          0 MISS:          0 MSHR_MERGE:          0
cpu0->cpu0_L2C WRITE        ACCESS:     240272 HIT:     157870 MISS:      82402 MSHR_MERGE:          0
cpu0->cpu0_L2C TRANSLATION  ACCESS:     267952 HIT:      73558 MISS:     194394 MSHR_MERGE:          0
cpu0->cpu0_L2C PREFETCH REQUESTED:          0 ISSUED:          0 USEFUL:          0 USELESS:          0
cpu0->cpu0_L2C AVERAGE MISS LATENCY: 133.1 cycles
cpu0->cpu0_L1I TOTAL        ACCESS:    3342513 HIT:    3324334 MISS:      18179 MSHR_MERGE:       4315
cpu0->cpu0_L1I LOAD         ACCESS:    3342513 HIT:    3324334 MISS:      18179 MSHR_MERGE:       4315
cpu0->cpu0_L1I RFO          ACCESS:          0 HIT:          0 MISS:          0 MSHR_MERGE:          0
cpu0->cpu0_L1I PREFETCH     ACCESS:          0 HIT:          0 MISS:          0 MSHR_MERGE:          0
cpu0->cpu0_L1I WRITE        ACCESS:          0 HIT:          0 MISS:          0 MSHR_MERGE:          0
cpu0->cpu0_L1I TRANSLATION  ACCESS:          0 HIT:          0 MISS:          0 MSHR_MERGE:          0
cpu0->cpu0_L1I PREFETCH REQUESTED:          0 ISSUED:          0 USEFUL:          0 USELESS:          0
cpu0->cpu0_L1I AVERAGE MISS LATENCY: 12.42 cycles
cpu0->cpu0_L1D TOTAL        ACCESS:   10260824 HIT:    9249805 MISS:    1011019 MSHR_MERGE:     247138
cpu0->cpu0_L1D LOAD         ACCESS:    5443431 HIT:    4880160 MISS:     563271 MSHR_MERGE:     125450
cpu0->cpu0_L1D RFO          ACCESS:          0 HIT:          0 MISS:          0 MSHR_MERGE:          0
cpu0->cpu0_L1D PREFETCH     ACCESS:          0 HIT:          0 MISS:          0 MSHR_MERGE:          0
cpu0->cpu0_L1D WRITE        ACCESS:    4527227 HIT:    4348108 MISS:     179119 MSHR_MERGE:     121011
cpu0->cpu0_L1D TRANSLATION  ACCESS:     290166 HIT:      21537 MISS:     268629 MSHR_MERGE:        677
cpu0->cpu0_L1D PREFETCH REQUESTED:          0 ISSUED:          0 USEFUL:          0 USELESS:          0
cpu0->cpu0_L1D AVERAGE MISS LATENCY: 122 cycles
cpu0->cpu0_ITLB TOTAL        ACCESS:    2948618 HIT:    2870928 MISS:      77690 MSHR_MERGE:      37545
cpu0->cpu0_ITLB LOAD         ACCESS:    2948618 HIT:    2870928 MISS:      77690 MSHR_MERGE:      37545
cpu0->cpu0_ITLB RFO          ACCESS:          0 HIT:          0 MISS:          0 MSHR_MERGE:          0
cpu0->cpu0_ITLB PREFETCH     ACCESS:          0 HIT:          0 MISS:          0 MSHR_MERGE:          0
cpu0->cpu0_ITLB WRITE        ACCESS:          0 HIT:          0 MISS:          0 MSHR_MERGE:          0
cpu0->cpu0_ITLB TRANSLATION  ACCESS:          0 HIT:          0 MISS:          0 MSHR_MERGE:          0
cpu0->cpu0_ITLB PREFETCH REQUESTED:          0 ISSUED:          0 USEFUL:          0 USELESS:          0
cpu0->cpu0_ITLB AVERAGE MISS LATENCY: 7.218 cycles
cpu0->cpu0_DTLB TOTAL        ACCESS:    9478583 HIT:    8868825 MISS:     609758 MSHR_MERGE:      86963
cpu0->cpu0_DTLB LOAD         ACCESS:    9478583 HIT:    8868825 MISS:     609758 MSHR_MERGE:      86963
cpu0->cpu0_DTLB RFO          ACCESS:          0 HIT:          0 MISS:          0 MSHR_MERGE:          0
cpu0->cpu0_DTLB PREFETCH     ACCESS:          0 HIT:          0 MISS:          0 MSHR_MERGE:          0
cpu0->cpu0_DTLB WRITE        ACCESS:          0 HIT:          0 MISS:          0 MSHR_MERGE:          0
cpu0->cpu0_DTLB TRANSLATION  ACCESS:          0 HIT:          0 MISS:          0 MSHR_MERGE:          0
cpu0->cpu0_DTLB PREFETCH REQUESTED:          0 ISSUED:          0 USEFUL:          0 USELESS:          0
cpu0->cpu0_DTLB AVERAGE MISS LATENCY: 86.84 cycles
cpu0->LLC TOTAL        ACCESS:     746282 HIT:     317668 MISS:     428614 MSHR_MERGE:          0
cpu0->LLC LOAD         ACCESS:     332662 HIT:      90297 MISS:     242365 MSHR_MERGE:          0
cpu0->LLC RFO          ACCESS:      43191 HIT:      14786 MISS:      28405 MSHR_MERGE:          0
cpu0->LLC PREFETCH     ACCESS:          0 HIT:          0 MISS:          0 MSHR_MERGE:          0
cpu0->LLC WRITE        ACCESS:     176035 HIT:     156396 MISS:      19639 MSHR_MERGE:          0
cpu0->LLC TRANSLATION  ACCESS:     194394 HIT:      56189 MISS:     138205 MSHR_MERGE:          0
cpu0->LLC PREFETCH REQUESTED:          0 ISSUED:          0 USEFUL:          0 USELESS:          0
cpu0->LLC AVERAGE MISS LATENCY: 181.4 cycles

DRAM Statistics

Channel 0 RQ ROW_BUFFER_HIT:       1428
  ROW_BUFFER_MISS:     407542
  AVG DBUS CONGESTED CYCLE: 19.92
Channel 0 WQ ROW_BUFFER_HIT:      44546
  ROW_BUFFER_MISS:      88950
  FULL:          0
Channel 0 REFRESHES ISSUED:       7482
