[VMEM] WARNING: physical memory size is smaller than virtual memory size.

*** ChampSim Multicore Out-of-Order Simulator ***
Warmup Instructions: 5000000
Simulation Instructions: 25000000
Number of CPUs: 1
Page size: 4096

Off-chip DRAM Size: 16 GiB Channels: 1 Width: 64-bit Data Rate: 3205 MT/s
Warmup finished CPU 0 instructions: 5000000 cycles: 1449659 cumulative IPC: 3.449 (Simulation time: 00 hr 00 min 17 sec)
Warmup complete CPU 0 instructions: 5000000 cycles: 1449659 cumulative IPC: 3.449 (Simulation time: 00 hr 00 min 17 sec)
Heartbeat CPU 0 instructions: 10000001 cycles: 6991790 heartbeat IPC: 1.43 cumulative IPC: 0.9022 (Simulation time: 00 hr 00 min 52 sec)
Heartbeat CPU 0 instructions: 20000003 cycles: 18388145 heartbeat IPC: 0.8775 cumulative IPC: 0.8856 (Simulation time: 00 hr 02 min 01 sec)
Simulation finished CPU 0 instructions: 25000001 cycles: 28510851 cumulative IPC: 0.8769 (Simulation time: 00 hr 03 min 10 sec)
Simulation complete CPU 0 instructions: 25000001 cycles: 28510851 cumulative IPC: 0.8769 (Simulation time: 00 hr 03 min 10 sec)

ChampSim completed all CPUs

=== Simulation ===
CPU 0 runs ../../hw2/traces/623.xalancbmk_s-165B.champsimtrace.xz

Region of Interest Statistics

CPU 0 cumulative IPC: 0.8769 instructions: 25000001 cycles: 28510851
CPU 0 Branch Prediction Accuracy: 96.52% MPKI: 9.701 Average ROB Occupancy at Mispredict: 59.63
Branch type MPKI
BRANCH_DIRECT_JUMP: 0
BRANCH_INDIRECT: 0
BRANCH_CONDITIONAL: 9.701
BRANCH_DIRECT_CALL: 0
BRANCH_INDIRECT_CALL: 0
BRANCH_RETURN: 0

cpu0->cpu0_STLB TOTAL        ACCESS:       8836 HIT:       8807 MISS:         29 MSHR_MERGE:          0
cpu0->cpu0_STLB LOAD         ACCESS:       8836 HIT:       8807 MISS:         29 MSHR_MERGE:          0
cpu0->cpu0_STLB RFO          ACCESS:          0 HIT:          0 MISS:          0 MSHR_MERGE:          0
cpu0->cpu0_STLB PREFETCH     ACCESS:          0 HIT:          0 MISS:          0 MSHR_MERGE:          0
cpu0->cpu0_STLB WRITE        ACCESS:          0 HIT:          0 MISS:          0 MSHR_MERGE:          0
cpu0->cpu0_STLB TRANSLATION  ACCESS:          0 HIT:          0 MISS:          0 MSHR_MERGE:          0
cpu0->cpu0_STLB PREFETCH REQUESTED:          0 ISSUED:          0 USEFUL:          0 USELESS:          0
cpu0->cpu0_STLB AVERAGE MISS LATENCY: 758.1 cycles
cpu0->cpu0_L2C TOTAL        ACCESS:     475743 HIT:      89956 MISS:     385787 MSHR_MERGE:          0
cpu0->cpu0_L2C LOAD         ACCESS:     475333 HIT:      89722 MISS:     385611 MSHR_MERGE:          0
cpu0->cpu0_L2C RFO          ACCESS:        146 HIT:         29 MISS:        117 MSHR_MERGE:          0
cpu0->cpu0_L2C PREFETCH     ACCESS:          0 HIT:          0 MISS:          0 MSHR_MERGE:          0
cpu0->cpu0_L2C WRITE        ACCESS:        213 HIT:        205 MISS:          8 MSHR_MERGE:          0
cpu0->cpu0_L2C TRANSLATION  ACCESS:         51 HIT:          0 MISS:         51 MSHR_MERGE:          0
cpu0->cpu0_L2C PREFETCH REQUESTED:          0 ISSUED:          0 USEFUL:          0 USELESS:          0
cpu0->cpu0_L2C AVERAGE MISS LATENCY: 61.43 cycles
cpu0->cpu0_L1I TOTAL        ACCESS:        921 HIT:        921 MISS:          0 MSHR_MERGE:          0
cpu0->cpu0_L1I LOAD         ACCESS:        921 HIT:        921 MISS:          0 MSHR_MERGE:          0
cpu0->cpu0_L1I RFO          ACCESS:          0 HIT:          0 MISS:          0 MSHR_MERGE:          0
cpu0->cpu0_L1I PREFETCH     ACCESS:          0 HIT:          0 MISS:          0 MSHR_MERGE:          0
cpu0->cpu0_L1I WRITE        ACCESS:          0 HIT:          0 MISS:          0 MSHR_MERGE:          0
cpu0->cpu0_L1I TRANSLATION  ACCESS:          0 HIT:          0 MISS:          0 MSHR_MERGE:          0
cpu0->cpu0_L1I PREFETCH REQUESTED:          0 ISSUED:          0 USEFUL:          0 USELESS:          0
cpu0->cpu0_L1I AVERAGE MISS LATENCY: - cycles
cpu0->cpu0_L1D TOTAL        ACCESS:    7031775 HIT:    5512741 MISS:    1519034 MSHR_MERGE:    1043504
cpu0->cpu0_L1D LOAD         ACCESS:    6703522 HIT:    5185303 MISS:    1518219 MSHR_MERGE:    1042886
cpu0->cpu0_L1D RFO          ACCESS:          0 HIT:          0 MISS:          0 MSHR_MERGE:          0
cpu0->cpu0_L1D PREFETCH     ACCESS:          0 HIT:          0 MISS:          0 MSHR_MERGE:          0
cpu0->cpu0_L1D WRITE        ACCESS:     328195 HIT:     327432 MISS:        763 MSHR_MERGE:        617
cpu0->cpu0_L1D TRANSLATION  ACCESS:         58 HIT:          6 MISS:         52 MSHR_MERGE:          1
cpu0->cpu0_L1D PREFETCH REQUESTED:          0 ISSUED:          0 USEFUL:          0 USELESS:          0
cpu0->cpu0_L1D AVERAGE MISS LATENCY: 58.65 cycles
cpu0->cpu0_ITLB TOTAL        ACCESS:        789 HIT:        789 MISS:          0 MSHR_MERGE:          0
cpu0->cpu0_ITLB LOAD         ACCESS:        789 HIT:        789 MISS:          0 MSHR_MERGE:          0
cpu0->cpu0_ITLB RFO          ACCESS:          0 HIT:          0 MISS:          0 MSHR_MERGE:          0
cpu0->cpu0_ITLB PREFETCH     ACCESS:          0 HIT:          0 MISS:          0 MSHR_MERGE:          0
cpu0->cpu0_ITLB WRITE        ACCESS:          0 HIT:          0 MISS:          0 MSHR_MERGE:          0
cpu0->cpu0_ITLB TRANSLATION  ACCESS:          0 HIT:          0 MISS:          0 MSHR_MERGE:          0
cpu0->cpu0_ITLB PREFETCH REQUESTED:          0 ISSUED:          0 USEFUL:          0 USELESS:          0
cpu0->cpu0_ITLB AVERAGE MISS LATENCY: - cycles
cpu0->cpu0_DTLB TOTAL        ACCESS:    6981691 HIT:    6960583 MISS:      21108 MSHR_MERGE:      12272
cpu0->cpu0_DTLB LOAD         ACCESS:    6981691 HIT:    6960583 MISS:      21108 MSHR_MERGE:      12272
cpu0->cpu0_DTLB RFO          ACCESS:          0 HIT:          0 MISS:          0 MSHR_MERGE:          0
cpu0->cpu0_DTLB PREFETCH     ACCESS:          0 HIT:          0 MISS:          0 MSHR_MERGE:          0
cpu0->cpu0_DTLB WRITE        ACCESS:          0 HIT:          0 MISS:          0 MSHR_MERGE:          0
cpu0->cpu0_DTLB TRANSLATION  ACCESS:          0 HIT:          0 MISS:          0 MSHR_MERGE:          0
cpu0->cpu0_DTLB PREFETCH REQUESTED:          0 ISSUED:          0 USEFUL:          0 USELESS:          0
cpu0->cpu0_DTLB AVERAGE MISS LATENCY: 7.491 cycles
cpu0->LLC TOTAL        ACCESS:     385942 HIT:     272506 MISS:     113436 MSHR_MERGE:          0
cpu0->LLC LOAD         ACCESS:     385611 HIT:     272321 MISS:     113290 MSHR_MERGE:          0
cpu0->LLC RFO          ACCESS:        117 HIT:         27 MISS:         90 MSHR_MERGE:          0
cpu0->LLC PREFETCH     ACCESS:          0 HIT:          0 MISS:          0 MSHR_MERGE:          0
cpu0->LLC WRITE        ACCESS:        163 HIT:        153 MISS:         10 MSHR_MERGE:          0
cpu0->LLC TRANSLATION  ACCESS:         51 HIT:          5 MISS:         46 MSHR_MERGE:          0
cpu0->LLC PREFETCH REQUESTED:          0 ISSUED:          0 USEFUL:          0 USELESS:          0
cpu0->LLC AVERAGE MISS LATENCY: 156.9 cycles

DRAM Statistics

Channel 0 RQ ROW_BUFFER_HIT:      20625
  ROW_BUFFER_MISS:      92802
  AVG DBUS CONGESTED CYCLE: 3.573
Channel 0 WQ ROW_BUFFER_HIT:         36
  ROW_BUFFER_MISS:         61
  FULL:          0
Channel 0 REFRESHES ISSUED:       2376
