[VMEM] WARNING: physical memory size is smaller than virtual memory size.

*** ChampSim Multicore Out-of-Order Simulator ***
Warmup Instructions: 5000000
Simulation Instructions: 25000000
Number of CPUs: 1
Page size: 4096

Off-chip DRAM Size: 16 GiB Channels: 1 Width: 64-bit Data Rate: 3205 MT/s
Warmup finished CPU 0 instructions: 5000002 cycles: 1277111 cumulative IPC: 3.915 (Simulation time: 00 hr 00 min 17 sec)
Warmup complete CPU 0 instructions: 5000002 cycles: 1277111 cumulative IPC: 3.915 (Simulation time: 00 hr 00 min 17 sec)
Heartbeat CPU 0 instructions: 10000000 cycles: 3229368 heartbeat IPC: 3.097 cumulative IPC: 2.561 (Simulation time: 00 hr 00 min 36 sec)
Heartbeat CPU 0 instructions: 20000002 cycles: 6919004 heartbeat IPC: 2.71 cumulative IPC: 2.659 (Simulation time: 00 hr 01 min 13 sec)
Heartbeat CPU 0 instructions: 30000003 cycles: 10600341 heartbeat IPC: 2.716 cumulative IPC: 2.681 (Simulation time: 00 hr 01 min 50 sec)
Simulation finished CPU 0 instructions: 25000001 cycles: 9323230 cumulative IPC: 2.681 (Simulation time: 00 hr 01 min 50 sec)
Simulation complete CPU 0 instructions: 25000001 cycles: 9323230 cumulative IPC: 2.681 (Simulation time: 00 hr 01 min 50 sec)

ChampSim completed all CPUs

=== Simulation ===
CPU 0 runs ../../hw2/traces/625.x264_s-12B.champsimtrace.xz

Region of Interest Statistics

CPU 0 cumulative IPC: 2.681 instructions: 25000001 cycles: 9323230
CPU 0 Branch Prediction Accuracy: 88.59% MPKI: 4.432 Average ROB Occupancy at Mispredict: 87.76
Branch type MPKI
BRANCH_DIRECT_JUMP: 0.00068
BRANCH_INDIRECT: 0.00016
BRANCH_CONDITIONAL: 4.425
BRANCH_DIRECT_CALL: 0.00028
BRANCH_INDIRECT_CALL: 0.0046
BRANCH_RETURN: 0.00116

cpu0->cpu0_STLB TOTAL        ACCESS:       2714 HIT:       2580 MISS:        134 MSHR_MERGE:          0
cpu0->cpu0_STLB LOAD         ACCESS:       2714 HIT:       2580 MISS:        134 MSHR_MERGE:          0
cpu0->cpu0_STLB RFO          ACCESS:          0 HIT:          0 MISS:          0 MSHR_MERGE:          0
cpu0->cpu0_STLB PREFETCH     ACCESS:          0 HIT:          0 MISS:          0 MSHR_MERGE:          0
cpu0->cpu0_STLB WRITE        ACCESS:          0 HIT:          0 MISS:          0 MSHR_MERGE:          0
cpu0->cpu0_STLB TRANSLATION  ACCESS:          0 HIT:          0 MISS:          0 MSHR_MERGE:          0
cpu0->cpu0_STLB PREFETCH REQUESTED:          0 ISSUED:          0 USEFUL:          0 USELESS:          0
cpu0->cpu0_STLB AVERAGE MISS LATENCY: 724.9 cycles
cpu0->cpu0_L2C TOTAL        ACCESS:      11999 HIT:       4629 MISS:       7370 MSHR_MERGE:          0
cpu0->cpu0_L2C LOAD         ACCESS:      11348 HIT:       4459 MISS:       6889 MSHR_MERGE:          0
cpu0->cpu0_L2C RFO          ACCESS:        245 HIT:          3 MISS:        242 MSHR_MERGE:          0
cpu0->cpu0_L2C PREFETCH     ACCESS:          0 HIT:          0 MISS:          0 MSHR_MERGE:          0
cpu0->cpu0_L2C WRITE        ACCESS:        189 HIT:        163 MISS:         26 MSHR_MERGE:          0
cpu0->cpu0_L2C TRANSLATION  ACCESS:        217 HIT:          4 MISS:        213 MSHR_MERGE:          0
cpu0->cpu0_L2C PREFETCH REQUESTED:          0 ISSUED:          0 USEFUL:          0 USELESS:          0
cpu0->cpu0_L2C AVERAGE MISS LATENCY: 150.3 cycles
cpu0->cpu0_L1I TOTAL        ACCESS:    2109800 HIT:    2109573 MISS:        227 MSHR_MERGE:         68
cpu0->cpu0_L1I LOAD         ACCESS:    2109800 HIT:    2109573 MISS:        227 MSHR_MERGE:         68
cpu0->cpu0_L1I RFO          ACCESS:          0 HIT:          0 MISS:          0 MSHR_MERGE:          0
cpu0->cpu0_L1I PREFETCH     ACCESS:          0 HIT:          0 MISS:          0 MSHR_MERGE:          0
cpu0->cpu0_L1I WRITE        ACCESS:          0 HIT:          0 MISS:          0 MSHR_MERGE:          0
cpu0->cpu0_L1I TRANSLATION  ACCESS:          0 HIT:          0 MISS:          0 MSHR_MERGE:          0
cpu0->cpu0_L1I PREFETCH REQUESTED:          0 ISSUED:          0 USEFUL:          0 USELESS:          0
cpu0->cpu0_L1I AVERAGE MISS LATENCY: 219.3 cycles
cpu0->cpu0_L1D TOTAL        ACCESS:    5051311 HIT:    5015084 MISS:      36227 MSHR_MERGE:      24576
cpu0->cpu0_L1D LOAD         ACCESS:    3528022 HIT:    3492432 MISS:      35590 MSHR_MERGE:      24401
cpu0->cpu0_L1D RFO          ACCESS:          0 HIT:          0 MISS:          0 MSHR_MERGE:          0
cpu0->cpu0_L1D PREFETCH     ACCESS:          0 HIT:          0 MISS:          0 MSHR_MERGE:          0
cpu0->cpu0_L1D WRITE        ACCESS:    1523021 HIT:    1522601 MISS:        420 MSHR_MERGE:        175
cpu0->cpu0_L1D TRANSLATION  ACCESS:        268 HIT:         51 MISS:        217 MSHR_MERGE:          0
cpu0->cpu0_L1D PREFETCH REQUESTED:          0 ISSUED:          0 USEFUL:          0 USELESS:          0
cpu0->cpu0_L1D AVERAGE MISS LATENCY: 100.8 cycles
cpu0->cpu0_ITLB TOTAL        ACCESS:    1932057 HIT:    1932019 MISS:         38 MSHR_MERGE:         28
cpu0->cpu0_ITLB LOAD         ACCESS:    1932057 HIT:    1932019 MISS:         38 MSHR_MERGE:         28
cpu0->cpu0_ITLB RFO          ACCESS:          0 HIT:          0 MISS:          0 MSHR_MERGE:          0
cpu0->cpu0_ITLB PREFETCH     ACCESS:          0 HIT:          0 MISS:          0 MSHR_MERGE:          0
cpu0->cpu0_ITLB WRITE        ACCESS:          0 HIT:          0 MISS:          0 MSHR_MERGE:          0
cpu0->cpu0_ITLB TRANSLATION  ACCESS:          0 HIT:          0 MISS:          0 MSHR_MERGE:          0
cpu0->cpu0_ITLB PREFETCH REQUESTED:          0 ISSUED:          0 USEFUL:          0 USELESS:          0
cpu0->cpu0_ITLB AVERAGE MISS LATENCY: 731 cycles
cpu0->cpu0_DTLB TOTAL        ACCESS:    4789625 HIT:    4784996 MISS:       4629 MSHR_MERGE:       1925
cpu0->cpu0_DTLB LOAD         ACCESS:    4789625 HIT:    4784996 MISS:       4629 MSHR_MERGE:       1925
cpu0->cpu0_DTLB RFO          ACCESS:          0 HIT:          0 MISS:          0 MSHR_MERGE:          0
cpu0->cpu0_DTLB PREFETCH     ACCESS:          0 HIT:          0 MISS:          0 MSHR_MERGE:          0
cpu0->cpu0_DTLB WRITE        ACCESS:          0 HIT:          0 MISS:          0 MSHR_MERGE:          0
cpu0->cpu0_DTLB TRANSLATION  ACCESS:          0 HIT:          0 MISS:          0 MSHR_MERGE:          0
cpu0->cpu0_DTLB PREFETCH REQUESTED:          0 ISSUED:          0 USEFUL:          0 USELESS:          0
cpu0->cpu0_DTLB AVERAGE MISS LATENCY: 38.29 cycles
cpu0->LLC TOTAL        ACCESS:       7375 HIT:       1204 MISS:       6171 MSHR_MERGE:          0
cpu0->LLC LOAD         ACCESS:       6889 HIT:       1173 MISS:       5716 MSHR_MERGE:          0
cpu0->LLC RFO          ACCESS:        242 HIT:          0 MISS:        242 MSHR_MERGE:          0
cpu0->LLC PREFETCH     ACCESS:          0 HIT:          0 MISS:          0 MSHR_MERGE:          0
cpu0->LLC WRITE        ACCESS:         31 HIT:         31 MISS:          0 MSHR_MERGE:          0
cpu0->LLC TRANSLATION  ACCESS:        213 HIT:          0 MISS:        213 MSHR_MERGE:          0
cpu0->LLC PREFETCH REQUESTED:          0 ISSUED:          0 USEFUL:          0 USELESS:          0
cpu0->LLC AVERAGE MISS LATENCY: 160.6 cycles

DRAM Statistics

Channel 0 RQ ROW_BUFFER_HIT:        167
  ROW_BUFFER_MISS:       6004
  AVG DBUS CONGESTED CYCLE: 2.782
Channel 0 WQ ROW_BUFFER_HIT:          0
  ROW_BUFFER_MISS:          0
  FULL:          0
Channel 0 REFRESHES ISSUED:        777
