[VMEM] WARNING: physical memory size is smaller than virtual memory size.

*** ChampSim Multicore Out-of-Order Simulator ***
Warmup Instructions: 5000000
Simulation Instructions: 25000000
Number of CPUs: 1
Page size: 4096

Off-chip DRAM Size: 16 GiB Channels: 1 Width: 64-bit Data Rate: 3205 MT/s
Warmup finished CPU 0 instructions: 5000000 cycles: 1482266 cumulative IPC: 3.373 (Simulation time: 00 hr 00 min 18 sec)
Warmup complete CPU 0 instructions: 5000000 cycles: 1482266 cumulative IPC: 3.373 (Simulation time: 00 hr 00 min 18 sec)
Heartbeat CPU 0 instructions: 10000000 cycles: 6211120 heartbeat IPC: 1.61 cumulative IPC: 1.057 (Simulation time: 00 hr 00 min 52 sec)
Heartbeat CPU 0 instructions: 20000000 cycles: 13252279 heartbeat IPC: 1.42 cumulative IPC: 1.274 (Simulation time: 00 hr 01 min 48 sec)
Heartbeat CPU 0 instructions: 30000002 cycles: 22825277 heartbeat IPC: 1.045 cumulative IPC: 1.171 (Simulation time: 00 hr 02 min 58 sec)
Simulation finished CPU 0 instructions: 25000002 cycles: 21343011 cumulative IPC: 1.171 (Simulation time: 00 hr 02 min 58 sec)
Simulation complete CPU 0 instructions: 25000002 cycles: 21343011 cumulative IPC: 1.171 (Simulation time: 00 hr 02 min 58 sec)

ChampSim completed all CPUs

=== Simulation ===
CPU 0 runs ../../hw2/traces/627.cam4_s-490B.champsimtrace.xz

Region of Interest Statistics

CPU 0 cumulative IPC: 1.171 instructions: 25000002 cycles: 21343011
CPU 0 Branch Prediction Accuracy: 88.99% MPKI: 10.5 Average ROB Occupancy at Mispredict: 31.3
Branch type MPKI
BRANCH_DIRECT_JUMP: 0.00488
BRANCH_INDIRECT: 0
BRANCH_CONDITIONAL: 10.5
BRANCH_DIRECT_CALL: 0.00032
BRANCH_INDIRECT_CALL: 0
BRANCH_RETURN: 0.00044

cpu0->cpu0_STLB TOTAL        ACCESS:       8024 HIT:       7373 MISS:        651 MSHR_MERGE:          0
cpu0->cpu0_STLB LOAD         ACCESS:       8024 HIT:       7373 MISS:        651 MSHR_MERGE:          0
cpu0->cpu0_STLB RFO          ACCESS:          0 HIT:          0 MISS:          0 MSHR_MERGE:          0
cpu0->cpu0_STLB PREFETCH     ACCESS:          0 HIT:          0 MISS:          0 MSHR_MERGE:          0
cpu0->cpu0_STLB WRITE        ACCESS:          0 HIT:          0 MISS:          0 MSHR_MERGE:          0
cpu0->cpu0_STLB TRANSLATION  ACCESS:          0 HIT:          0 MISS:          0 MSHR_MERGE:          0
cpu0->cpu0_STLB PREFETCH REQUESTED:          0 ISSUED:          0 USEFUL:          0 USELESS:          0
cpu0->cpu0_STLB AVERAGE MISS LATENCY: 709.4 cycles
cpu0->cpu0_L2C TOTAL        ACCESS:     667952 HIT:     214019 MISS:     453933 MSHR_MERGE:          0
cpu0->cpu0_L2C LOAD         ACCESS:     330482 HIT:      80864 MISS:     249618 MSHR_MERGE:          0
cpu0->cpu0_L2C RFO          ACCESS:     136464 HIT:      26927 MISS:     109537 MSHR_MERGE:          0
cpu0->cpu0_L2C PREFETCH     ACCESS:          0 HIT:          0 MISS:          0 MSHR_MERGE:          0
cpu0->cpu0_L2C WRITE        ACCESS:     200185 HIT:     106226 MISS:      93959 MSHR_MERGE:          0
cpu0->cpu0_L2C TRANSLATION  ACCESS:        821 HIT:          2 MISS:        819 MSHR_MERGE:          0
cpu0->cpu0_L2C PREFETCH REQUESTED:          0 ISSUED:          0 USEFUL:          0 USELESS:          0
cpu0->cpu0_L2C AVERAGE MISS LATENCY: 68.54 cycles
cpu0->cpu0_L1I TOTAL        ACCESS:    1750233 HIT:    1749205 MISS:       1028 MSHR_MERGE:        491
cpu0->cpu0_L1I LOAD         ACCESS:    1750233 HIT:    1749205 MISS:       1028 MSHR_MERGE:        491
cpu0->cpu0_L1I RFO          ACCESS:          0 HIT:          0 MISS:          0 MSHR_MERGE:          0
cpu0->cpu0_L1I PREFETCH     ACCESS:          0 HIT:          0 MISS:          0 MSHR_MERGE:          0
cpu0->cpu0_L1I WRITE        ACCESS:          0 HIT:          0 MISS:          0 MSHR_MERGE:          0
cpu0->cpu0_L1I TRANSLATION  ACCESS:          0 HIT:          0 MISS:          0 MSHR_MERGE:          0
cpu0->cpu0_L1I PREFETCH REQUESTED:          0 ISSUED:          0 USEFUL:          0 USELESS:          0
cpu0->cpu0_L1I AVERAGE MISS LATENCY: 241.4 cycles
cpu0->cpu0_L1D TOTAL        ACCESS:    4984641 HIT:    3656242 MISS:    1328399 MSHR_MERGE:     861168
cpu0->cpu0_L1D LOAD         ACCESS:    3326374 HIT:    2589385 MISS:     736989 MSHR_MERGE:     407043
cpu0->cpu0_L1D RFO          ACCESS:          0 HIT:          0 MISS:          0 MSHR_MERGE:          0
cpu0->cpu0_L1D PREFETCH     ACCESS:          0 HIT:          0 MISS:          0 MSHR_MERGE:          0
cpu0->cpu0_L1D WRITE        ACCESS:    1656953 HIT:    1066366 MISS:     590587 MSHR_MERGE:     454123
cpu0->cpu0_L1D TRANSLATION  ACCESS:       1314 HIT:        491 MISS:        823 MSHR_MERGE:          2
cpu0->cpu0_L1D PREFETCH REQUESTED:          0 ISSUED:          0 USEFUL:          0 USELESS:          0
cpu0->cpu0_L1D AVERAGE MISS LATENCY: 74.33 cycles
cpu0->cpu0_ITLB TOTAL        ACCESS:    1574014 HIT:    1573992 MISS:         22 MSHR_MERGE:         16
cpu0->cpu0_ITLB LOAD         ACCESS:    1574014 HIT:    1573992 MISS:         22 MSHR_MERGE:         16
cpu0->cpu0_ITLB RFO          ACCESS:          0 HIT:          0 MISS:          0 MSHR_MERGE:          0
cpu0->cpu0_ITLB PREFETCH     ACCESS:          0 HIT:          0 MISS:          0 MSHR_MERGE:          0
cpu0->cpu0_ITLB WRITE        ACCESS:          0 HIT:          0 MISS:          0 MSHR_MERGE:          0
cpu0->cpu0_ITLB TRANSLATION  ACCESS:          0 HIT:          0 MISS:          0 MSHR_MERGE:          0
cpu0->cpu0_ITLB PREFETCH REQUESTED:          0 ISSUED:          0 USEFUL:          0 USELESS:          0
cpu0->cpu0_ITLB AVERAGE MISS LATENCY: 808.2 cycles
cpu0->cpu0_DTLB TOTAL        ACCESS:    4825264 HIT:    4809745 MISS:      15519 MSHR_MERGE:       7501
cpu0->cpu0_DTLB LOAD         ACCESS:    4825264 HIT:    4809745 MISS:      15519 MSHR_MERGE:       7501
cpu0->cpu0_DTLB RFO          ACCESS:          0 HIT:          0 MISS:          0 MSHR_MERGE:          0
cpu0->cpu0_DTLB PREFETCH     ACCESS:          0 HIT:          0 MISS:          0 MSHR_MERGE:          0
cpu0->cpu0_DTLB WRITE        ACCESS:          0 HIT:          0 MISS:          0 MSHR_MERGE:          0
cpu0->cpu0_DTLB TRANSLATION  ACCESS:          0 HIT:          0 MISS:          0 MSHR_MERGE:          0
cpu0->cpu0_DTLB PREFETCH REQUESTED:          0 ISSUED:          0 USEFUL:          0 USELESS:          0
cpu0->cpu0_DTLB AVERAGE MISS LATENCY: 62.08 cycles
cpu0->LLC TOTAL        ACCESS:     525123 HIT:     416674 MISS:     108449 MSHR_MERGE:          0
cpu0->LLC LOAD         ACCESS:     249618 HIT:     204131 MISS:      45487 MSHR_MERGE:          0
cpu0->LLC RFO          ACCESS:     109537 HIT:      57121 MISS:      52416 MSHR_MERGE:          0
cpu0->LLC PREFETCH     ACCESS:          0 HIT:          0 MISS:          0 MSHR_MERGE:          0
cpu0->LLC WRITE        ACCESS:     165149 HIT:     155416 MISS:       9733 MSHR_MERGE:          0
cpu0->LLC TRANSLATION  ACCESS:        819 HIT:          6 MISS:        813 MSHR_MERGE:          0
cpu0->LLC PREFETCH REQUESTED:          0 ISSUED:          0 USEFUL:          0 USELESS:          0
cpu0->LLC AVERAGE MISS LATENCY: 233.4 cycles

DRAM Statistics

Channel 0 RQ ROW_BUFFER_HIT:       5746
  ROW_BUFFER_MISS:      92889
  AVG DBUS CONGESTED CYCLE: 11.2
Channel 0 WQ ROW_BUFFER_HIT:      16190
  ROW_BUFFER_MISS:      60366
  FULL:          0
Channel 0 REFRESHES ISSUED:       1779
