[VMEM] WARNING: physical memory size is smaller than virtual memory size.

*** ChampSim Multicore Out-of-Order Simulator ***
Warmup Instructions: 5000000
Simulation Instructions: 25000000
Number of CPUs: 1
Page size: 4096

Off-chip DRAM Size: 16 GiB Channels: 1 Width: 64-bit Data Rate: 3205 MT/s
Warmup finished CPU 0 instructions: 5000002 cycles: 1766136 cumulative IPC: 2.831 (Simulation time: 00 hr 00 min 22 sec)
Warmup complete CPU 0 instructions: 5000002 cycles: 1766136 cumulative IPC: 2.831 (Simulation time: 00 hr 00 min 22 sec)
Heartbeat CPU 0 instructions: 10000001 cycles: 5594059 heartbeat IPC: 1.788 cumulative IPC: 1.306 (Simulation time: 00 hr 00 min 49 sec)
Heartbeat CPU 0 instructions: 20000002 cycles: 13379859 heartbeat IPC: 1.284 cumulative IPC: 1.292 (Simulation time: 00 hr 01 min 44 sec)
Heartbeat CPU 0 instructions: 30000004 cycles: 21042815 heartbeat IPC: 1.305 cumulative IPC: 1.297 (Simulation time: 00 hr 02 min 39 sec)
Simulation finished CPU 0 instructions: 25000002 cycles: 19276679 cumulative IPC: 1.297 (Simulation time: 00 hr 02 min 39 sec)
Simulation complete CPU 0 instructions: 25000002 cycles: 19276679 cumulative IPC: 1.297 (Simulation time: 00 hr 02 min 39 sec)

ChampSim completed all CPUs

=== Simulation ===
CPU 0 runs ../../hw2/traces/631.deepsjeng_s-928B.champsimtrace.xz

Region of Interest Statistics

CPU 0 cumulative IPC: 1.297 instructions: 25000002 cycles: 19276679
CPU 0 Branch Prediction Accuracy: 90.01% MPKI: 14.97 Average ROB Occupancy at Mispredict: 32.65
Branch type MPKI
BRANCH_DIRECT_JUMP: 0.02156
BRANCH_INDIRECT: 0.00908
BRANCH_CONDITIONAL: 14.48
BRANCH_DIRECT_CALL: 0.02132
BRANCH_INDIRECT_CALL: 0
BRANCH_RETURN: 0.432

cpu0->cpu0_STLB TOTAL        ACCESS:       6386 HIT:       2006 MISS:       4380 MSHR_MERGE:          0
cpu0->cpu0_STLB LOAD         ACCESS:       6386 HIT:       2006 MISS:       4380 MSHR_MERGE:          0
cpu0->cpu0_STLB RFO          ACCESS:          0 HIT:          0 MISS:          0 MSHR_MERGE:          0
cpu0->cpu0_STLB PREFETCH     ACCESS:          0 HIT:          0 MISS:          0 MSHR_MERGE:          0
cpu0->cpu0_STLB WRITE        ACCESS:          0 HIT:          0 MISS:          0 MSHR_MERGE:          0
cpu0->cpu0_STLB TRANSLATION  ACCESS:          0 HIT:          0 MISS:          0 MSHR_MERGE:          0
cpu0->cpu0_STLB PREFETCH REQUESTED:          0 ISSUED:          0 USEFUL:          0 USELESS:          0
cpu0->cpu0_STLB AVERAGE MISS LATENCY: 935.4 cycles
cpu0->cpu0_L2C TOTAL        ACCESS:      70876 HIT:      50370 MISS:      20506 MSHR_MERGE:          0
cpu0->cpu0_L2C LOAD         ACCESS:      36340 HIT:      28849 MISS:       7491 MSHR_MERGE:          0
cpu0->cpu0_L2C RFO          ACCESS:       7709 HIT:       7092 MISS:        617 MSHR_MERGE:          0
cpu0->cpu0_L2C PREFETCH     ACCESS:          0 HIT:          0 MISS:          0 MSHR_MERGE:          0
cpu0->cpu0_L2C WRITE        ACCESS:      13997 HIT:      12738 MISS:       1259 MSHR_MERGE:          0
cpu0->cpu0_L2C TRANSLATION  ACCESS:      12830 HIT:       1691 MISS:      11139 MSHR_MERGE:          0
cpu0->cpu0_L2C PREFETCH REQUESTED:          0 ISSUED:          0 USEFUL:          0 USELESS:          0
cpu0->cpu0_L2C AVERAGE MISS LATENCY: 154.4 cycles
cpu0->cpu0_L1I TOTAL        ACCESS:    2891810 HIT:    2864147 MISS:      27663 MSHR_MERGE:       6381
cpu0->cpu0_L1I LOAD         ACCESS:    2891810 HIT:    2864147 MISS:      27663 MSHR_MERGE:       6381
cpu0->cpu0_L1I RFO          ACCESS:          0 HIT:          0 MISS:          0 MSHR_MERGE:          0
cpu0->cpu0_L1I PREFETCH     ACCESS:          0 HIT:          0 MISS:          0 MSHR_MERGE:          0
cpu0->cpu0_L1I WRITE        ACCESS:          0 HIT:          0 MISS:          0 MSHR_MERGE:          0
cpu0->cpu0_L1I TRANSLATION  ACCESS:          0 HIT:          0 MISS:          0 MSHR_MERGE:          0
cpu0->cpu0_L1I PREFETCH REQUESTED:          0 ISSUED:          0 USEFUL:          0 USELESS:          0
cpu0->cpu0_L1I AVERAGE MISS LATENCY: 7.148 cycles
cpu0->cpu0_L1D TOTAL        ACCESS:    7636768 HIT:    7583032 MISS:      53736 MSHR_MERGE:      18136
cpu0->cpu0_L1D LOAD         ACCESS:    4591740 HIT:    4571658 MISS:      20082 MSHR_MERGE:       5021
cpu0->cpu0_L1D RFO          ACCESS:          0 HIT:          0 MISS:          0 MSHR_MERGE:          0
cpu0->cpu0_L1D PREFETCH     ACCESS:          0 HIT:          0 MISS:          0 MSHR_MERGE:          0
cpu0->cpu0_L1D WRITE        ACCESS:    3031836 HIT:    3011046 MISS:      20790 MSHR_MERGE:      13081
cpu0->cpu0_L1D TRANSLATION  ACCESS:      13192 HIT:        328 MISS:      12864 MSHR_MERGE:         34
cpu0->cpu0_L1D PREFETCH REQUESTED:          0 ISSUED:          0 USEFUL:          0 USELESS:          0
cpu0->cpu0_L1D AVERAGE MISS LATENCY: 97.32 cycles
cpu0->cpu0_ITLB TOTAL        ACCESS:    2451802 HIT:    2451802 MISS:          0 MSHR_MERGE:          0
cpu0->cpu0_ITLB LOAD         ACCESS:    2451802 HIT:    2451802 MISS:          0 MSHR_MERGE:          0
cpu0->cpu0_ITLB RFO          ACCESS:          0 HIT:          0 MISS:          0 MSHR_MERGE:          0
cpu0->cpu0_ITLB PREFETCH     ACCESS:          0 HIT:          0 MISS:          0 MSHR_MERGE:          0
cpu0->cpu0_ITLB WRITE        ACCESS:          0 HIT:          0 MISS:          0 MSHR_MERGE:          0
cpu0->cpu0_ITLB TRANSLATION  ACCESS:          0 HIT:          0 MISS:          0 MSHR_MERGE:          0
cpu0->cpu0_ITLB PREFETCH REQUESTED:          0 ISSUED:          0 USEFUL:          0 USELESS:          0
cpu0->cpu0_ITLB AVERAGE MISS LATENCY: - cycles
cpu0->cpu0_DTLB TOTAL        ACCESS:    7140535 HIT:    7128612 MISS:      11923 MSHR_MERGE:       5537
cpu0->cpu0_DTLB LOAD         ACCESS:    7140535 HIT:    7128612 MISS:      11923 MSHR_MERGE:       5537
cpu0->cpu0_DTLB RFO          ACCESS:          0 HIT:          0 MISS:          0 MSHR_MERGE:          0
cpu0->cpu0_DTLB PREFETCH     ACCESS:          0 HIT:          0 MISS:          0 MSHR_MERGE:          0
cpu0->cpu0_DTLB WRITE        ACCESS:          0 HIT:          0 MISS:          0 MSHR_MERGE:          0
cpu0->cpu0_DTLB TRANSLATION  ACCESS:          0 HIT:          0 MISS:          0 MSHR_MERGE:          0
cpu0->cpu0_DTLB PREFETCH REQUESTED:          0 ISSUED:          0 USEFUL:          0 USELESS:          0
cpu0->cpu0_DTLB AVERAGE MISS LATENCY: 647.2 cycles
cpu0->LLC TOTAL        ACCESS:      23579 HIT:       6028 MISS:      17551 MSHR_MERGE:          0
cpu0->LLC LOAD         ACCESS:       7491 HIT:        524 MISS:       6967 MSHR_MERGE:          0
cpu0->LLC RFO          ACCESS:        617 HIT:        168 MISS:        449 MSHR_MERGE:          0
cpu0->LLC PREFETCH     ACCESS:          0 HIT:          0 MISS:          0 MSHR_MERGE:          0
cpu0->LLC WRITE        ACCESS:       4332 HIT:       4330 MISS:          2 MSHR_MERGE:          0
cpu0->LLC TRANSLATION  ACCESS:      11139 HIT:       1006 MISS:      10133 MSHR_MERGE:          0
cpu0->LLC PREFETCH REQUESTED:          0 ISSUED:          0 USEFUL:          0 USELESS:          0
cpu0->LLC AVERAGE MISS LATENCY: 162.7 cycles

DRAM Statistics

Channel 0 RQ ROW_BUFFER_HIT:         30
  ROW_BUFFER_MISS:      17519
  AVG DBUS CONGESTED CYCLE: 3.035
Channel 0 WQ ROW_BUFFER_HIT:          0
  ROW_BUFFER_MISS:         36
  FULL:          0
Channel 0 REFRESHES ISSUED:       1606
