[VMEM] WARNING: physical memory size is smaller than virtual memory size.

*** ChampSim Multicore Out-of-Order Simulator ***
Warmup Instructions: 5000000
Simulation Instructions: 25000000
Number of CPUs: 1
Page size: 4096

Off-chip DRAM Size: 16 GiB Channels: 1 Width: 64-bit Data Rate: 3205 MT/s
Warmup finished CPU 0 instructions: 5000001 cycles: 1343832 cumulative IPC: 3.721 (Simulation time: 00 hr 00 min 18 sec)
Warmup complete CPU 0 instructions: 5000001 cycles: 1343832 cumulative IPC: 3.721 (Simulation time: 00 hr 00 min 18 sec)
Heartbeat CPU 0 instructions: 10000002 cycles: 5045352 heartbeat IPC: 1.982 cumulative IPC: 1.351 (Simulation time: 00 hr 00 min 44 sec)
Heartbeat CPU 0 instructions: 20000003 cycles: 17157409 heartbeat IPC: 0.8256 cumulative IPC: 0.9486 (Simulation time: 00 hr 02 min 04 sec)
Simulation finished CPU 0 instructions: 25000000 cycles: 23561219 cumulative IPC: 1.061 (Simulation time: 00 hr 02 min 54 sec)
Simulation complete CPU 0 instructions: 25000000 cycles: 23561219 cumulative IPC: 1.061 (Simulation time: 00 hr 02 min 54 sec)

ChampSim completed all CPUs

=== Simulation ===
CPU 0 runs ../../hw2/traces/641.leela_s-149B.champsimtrace.xz

Region of Interest Statistics

CPU 0 cumulative IPC: 1.061 instructions: 25000000 cycles: 23561219
CPU 0 Branch Prediction Accuracy: 89.11% MPKI: 18.82 Average ROB Occupancy at Mispredict: 21.74
Branch type MPKI
BRANCH_DIRECT_JUMP: 0.1037
BRANCH_INDIRECT: 0.02064
BRANCH_CONDITIONAL: 18.64
BRANCH_DIRECT_CALL: 0.01192
BRANCH_INDIRECT_CALL: 0.0072
BRANCH_RETURN: 0.03844

cpu0->cpu0_STLB TOTAL        ACCESS:      12552 HIT:      12074 MISS:        478 MSHR_MERGE:          0
cpu0->cpu0_STLB LOAD         ACCESS:      12552 HIT:      12074 MISS:        478 MSHR_MERGE:          0
cpu0->cpu0_STLB RFO          ACCESS:          0 HIT:          0 MISS:          0 MSHR_MERGE:          0
cpu0->cpu0_STLB PREFETCH     ACCESS:          0 HIT:          0 MISS:          0 MSHR_MERGE:          0
cpu0->cpu0_STLB WRITE        ACCESS:          0 HIT:          0 MISS:          0 MSHR_MERGE:          0
cpu0->cpu0_STLB TRANSLATION  ACCESS:          0 HIT:          0 MISS:          0 MSHR_MERGE:          0
cpu0->cpu0_STLB PREFETCH REQUESTED:          0 ISSUED:          0 USEFUL:          0 USELESS:          0
cpu0->cpu0_STLB AVERAGE MISS LATENCY: 729.8 cycles
cpu0->cpu0_L2C TOTAL        ACCESS:     292659 HIT:     176373 MISS:     116286 MSHR_MERGE:          0
cpu0->cpu0_L2C LOAD         ACCESS:     124409 HIT:      70446 MISS:      53963 MSHR_MERGE:          0
cpu0->cpu0_L2C RFO          ACCESS:      63866 HIT:      34330 MISS:      29536 MSHR_MERGE:          0
cpu0->cpu0_L2C PREFETCH     ACCESS:          0 HIT:          0 MISS:          0 MSHR_MERGE:          0
cpu0->cpu0_L2C WRITE        ACCESS:     103633 HIT:      71593 MISS:      32040 MSHR_MERGE:          0
cpu0->cpu0_L2C TRANSLATION  ACCESS:        751 HIT:          4 MISS:        747 MSHR_MERGE:          0
cpu0->cpu0_L2C PREFETCH REQUESTED:          0 ISSUED:          0 USEFUL:          0 USELESS:          0
cpu0->cpu0_L2C AVERAGE MISS LATENCY: 50.45 cycles
cpu0->cpu0_L1I TOTAL        ACCESS:    3051933 HIT:    3040898 MISS:      11035 MSHR_MERGE:       3764
cpu0->cpu0_L1I LOAD         ACCESS:    3051933 HIT:    3040898 MISS:      11035 MSHR_MERGE:       3764
cpu0->cpu0_L1I RFO          ACCESS:          0 HIT:          0 MISS:          0 MSHR_MERGE:          0
cpu0->cpu0_L1I PREFETCH     ACCESS:          0 HIT:          0 MISS:          0 MSHR_MERGE:          0
cpu0->cpu0_L1I WRITE        ACCESS:          0 HIT:          0 MISS:          0 MSHR_MERGE:          0
cpu0->cpu0_L1I TRANSLATION  ACCESS:          0 HIT:          0 MISS:          0 MSHR_MERGE:          0
cpu0->cpu0_L1I PREFETCH REQUESTED:          0 ISSUED:          0 USEFUL:          0 USELESS:          0
cpu0->cpu0_L1I AVERAGE MISS LATENCY: 28.11 cycles
cpu0->cpu0_L1D TOTAL        ACCESS:    8178741 HIT:    7745769 MISS:     432972 MSHR_MERGE:     251217
cpu0->cpu0_L1D LOAD         ACCESS:    4620897 HIT:    4436424 MISS:     184473 MSHR_MERGE:      67335
cpu0->cpu0_L1D RFO          ACCESS:          0 HIT:          0 MISS:          0 MSHR_MERGE:          0
cpu0->cpu0_L1D PREFETCH     ACCESS:          0 HIT:          0 MISS:          0 MSHR_MERGE:          0
cpu0->cpu0_L1D WRITE        ACCESS:    3556887 HIT:    3309139 MISS:     247748 MSHR_MERGE:     183882
cpu0->cpu0_L1D TRANSLATION  ACCESS:        957 HIT:        206 MISS:        751 MSHR_MERGE:          0
cpu0->cpu0_L1D PREFETCH REQUESTED:          0 ISSUED:          0 USEFUL:          0 USELESS:          0
cpu0->cpu0_L1D AVERAGE MISS LATENCY: 39.27 cycles
cpu0->cpu0_ITLB TOTAL        ACCESS:    2774907 HIT:    2774272 MISS:        635 MSHR_MERGE:        349
cpu0->cpu0_ITLB LOAD         ACCESS:    2774907 HIT:    2774272 MISS:        635 MSHR_MERGE:        349
cpu0->cpu0_ITLB RFO          ACCESS:          0 HIT:          0 MISS:          0 MSHR_MERGE:          0
cpu0->cpu0_ITLB PREFETCH     ACCESS:          0 HIT:          0 MISS:          0 MSHR_MERGE:          0
cpu0->cpu0_ITLB WRITE        ACCESS:          0 HIT:          0 MISS:          0 MSHR_MERGE:          0
cpu0->cpu0_ITLB TRANSLATION  ACCESS:          0 HIT:          0 MISS:          0 MSHR_MERGE:          0
cpu0->cpu0_ITLB PREFETCH REQUESTED:          0 ISSUED:          0 USEFUL:          0 USELESS:          0
cpu0->cpu0_ITLB AVERAGE MISS LATENCY: 121 cycles
cpu0->cpu0_DTLB TOTAL        ACCESS:    7745052 HIT:    7727435 MISS:      17617 MSHR_MERGE:       5351
cpu0->cpu0_DTLB LOAD         ACCESS:    7745052 HIT:    7727435 MISS:      17617 MSHR_MERGE:       5351
cpu0->cpu0_DTLB RFO          ACCESS:          0 HIT:          0 MISS:          0 MSHR_MERGE:          0
cpu0->cpu0_DTLB PREFETCH     ACCESS:          0 HIT:          0 MISS:          0 MSHR_MERGE:          0
cpu0->cpu0_DTLB WRITE        ACCESS:          0 HIT:          0 MISS:          0 MSHR_MERGE:          0
cpu0->cpu0_DTLB TRANSLATION  ACCESS:          0 HIT:          0 MISS:          0 MSHR_MERGE:          0
cpu0->cpu0_DTLB PREFETCH REQUESTED:          0 ISSUED:          0 USEFUL:          0 USELESS:          0
cpu0->cpu0_DTLB AVERAGE MISS LATENCY: 30.78 cycles
cpu0->LLC TOTAL        ACCESS:     136658 HIT:     110063 MISS:      26595 MSHR_MERGE:          0
cpu0->LLC LOAD         ACCESS:      53963 HIT:      35922 MISS:      18041 MSHR_MERGE:          0
cpu0->LLC RFO          ACCESS:      29536 HIT:      21998 MISS:       7538 MSHR_MERGE:          0
cpu0->LLC PREFETCH     ACCESS:          0 HIT:          0 MISS:          0 MSHR_MERGE:          0
cpu0->LLC WRITE        ACCESS:      52412 HIT:      52138 MISS:        274 MSHR_MERGE:          0
cpu0->LLC TRANSLATION  ACCESS:        747 HIT:          5 MISS:        742 MSHR_MERGE:          0
cpu0->LLC PREFETCH REQUESTED:          0 ISSUED:          0 USEFUL:          0 USELESS:          0
cpu0->LLC AVERAGE MISS LATENCY: 167.4 cycles

DRAM Statistics

Channel 0 RQ ROW_BUFFER_HIT:       2766
  ROW_BUFFER_MISS:      23555
  AVG DBUS CONGESTED CYCLE: 14.81
Channel 0 WQ ROW_BUFFER_HIT:         51
  ROW_BUFFER_MISS:        492
  FULL:          0
Channel 0 REFRESHES ISSUED:       1964
