[VMEM] WARNING: physical memory size is smaller than virtual memory size.

*** ChampSim Multicore Out-of-Order Simulator ***
Warmup Instructions: 5000000
Simulation Instructions: 25000000
Number of CPUs: 1
Page size: 4096

Off-chip DRAM Size: 16 GiB Channels: 1 Width: 64-bit Data Rate: 3205 MT/s
Warmup finished CPU 0 instructions: 5000002 cycles: 1300157 cumulative IPC: 3.846 (Simulation time: 00 hr 00 min 17 sec)
Warmup complete CPU 0 instructions: 5000002 cycles: 1300157 cumulative IPC: 3.846 (Simulation time: 00 hr 00 min 17 sec)
Heartbeat CPU 0 instructions: 10000001 cycles: 4147917 heartbeat IPC: 2.411 cumulative IPC: 1.756 (Simulation time: 00 hr 00 min 37 sec)
Heartbeat CPU 0 instructions: 20000002 cycles: 10069418 heartbeat IPC: 1.689 cumulative IPC: 1.711 (Simulation time: 00 hr 01 min 21 sec)
Heartbeat CPU 0 instructions: 30000002 cycles: 15973315 heartbeat IPC: 1.694 cumulative IPC: 1.704 (Simulation time: 00 hr 02 min 04 sec)
Simulation finished CPU 0 instructions: 25000000 cycles: 14673158 cumulative IPC: 1.704 (Simulation time: 00 hr 02 min 04 sec)
Simulation complete CPU 0 instructions: 25000000 cycles: 14673158 cumulative IPC: 1.704 (Simulation time: 00 hr 02 min 04 sec)

ChampSim completed all CPUs

=== Simulation ===
CPU 0 runs ../../hw2/traces/644.nab_s-12459B.champsimtrace.xz

Region of Interest Statistics

CPU 0 cumulative IPC: 1.704 instructions: 25000000 cycles: 14673158
CPU 0 Branch Prediction Accuracy: 91.2% MPKI: 12.64 Average ROB Occupancy at Mispredict: 42.78
Branch type MPKI
BRANCH_DIRECT_JUMP: 0.2805
BRANCH_INDIRECT: 0
BRANCH_CONDITIONAL: 12.36
BRANCH_DIRECT_CALL: 0
BRANCH_INDIRECT_CALL: 0
BRANCH_RETURN: 0

cpu0->cpu0_STLB TOTAL        ACCESS:       5230 HIT:       5150 MISS:         80 MSHR_MERGE:          0
cpu0->cpu0_STLB LOAD         ACCESS:       5230 HIT:       5150 MISS:         80 MSHR_MERGE:          0
cpu0->cpu0_STLB RFO          ACCESS:          0 HIT:          0 MISS:          0 MSHR_MERGE:          0
cpu0->cpu0_STLB PREFETCH     ACCESS:          0 HIT:          0 MISS:          0 MSHR_MERGE:          0
cpu0->cpu0_STLB WRITE        ACCESS:          0 HIT:          0 MISS:          0 MSHR_MERGE:          0
cpu0->cpu0_STLB TRANSLATION  ACCESS:          0 HIT:          0 MISS:          0 MSHR_MERGE:          0
cpu0->cpu0_STLB PREFETCH REQUESTED:          0 ISSUED:          0 USEFUL:          0 USELESS:          0
cpu0->cpu0_STLB AVERAGE MISS LATENCY: 699.8 cycles
cpu0->cpu0_L2C TOTAL        ACCESS:     159965 HIT:     144576 MISS:      15389 MSHR_MERGE:          0
cpu0->cpu0_L2C LOAD         ACCESS:     139535 HIT:     128785 MISS:      10750 MSHR_MERGE:          0
cpu0->cpu0_L2C RFO          ACCESS:       8188 HIT:       4315 MISS:       3873 MSHR_MERGE:          0
cpu0->cpu0_L2C PREFETCH     ACCESS:          0 HIT:          0 MISS:          0 MSHR_MERGE:          0
cpu0->cpu0_L2C WRITE        ACCESS:      12116 HIT:      11463 MISS:        653 MSHR_MERGE:          0
cpu0->cpu0_L2C TRANSLATION  ACCESS:        126 HIT:         13 MISS:        113 MSHR_MERGE:          0
cpu0->cpu0_L2C PREFETCH REQUESTED:          0 ISSUED:          0 USEFUL:          0 USELESS:          0
cpu0->cpu0_L2C AVERAGE MISS LATENCY: 71.3 cycles
cpu0->cpu0_L1I TOTAL        ACCESS:      81119 HIT:      81119 MISS:          0 MSHR_MERGE:          0
cpu0->cpu0_L1I LOAD         ACCESS:      81119 HIT:      81119 MISS:          0 MSHR_MERGE:          0
cpu0->cpu0_L1I RFO          ACCESS:          0 HIT:          0 MISS:          0 MSHR_MERGE:          0
cpu0->cpu0_L1I PREFETCH     ACCESS:          0 HIT:          0 MISS:          0 MSHR_MERGE:          0
cpu0->cpu0_L1I WRITE        ACCESS:          0 HIT:          0 MISS:          0 MSHR_MERGE:          0
cpu0->cpu0_L1I TRANSLATION  ACCESS:          0 HIT:          0 MISS:          0 MSHR_MERGE:          0
cpu0->cpu0_L1I PREFETCH REQUESTED:          0 ISSUED:          0 USEFUL:          0 USELESS:          0
cpu0->cpu0_L1I AVERAGE MISS LATENCY: - cycles
cpu0->cpu0_L1D TOTAL        ACCESS:    6816311 HIT:    6582090 MISS:     234221 MSHR_MERGE:      86372
cpu0->cpu0_L1D LOAD         ACCESS:    4353484 HIT:    4186702 MISS:     166782 MSHR_MERGE:      27247
cpu0->cpu0_L1D RFO          ACCESS:          0 HIT:          0 MISS:          0 MSHR_MERGE:          0
cpu0->cpu0_L1D PREFETCH     ACCESS:          0 HIT:          0 MISS:          0 MSHR_MERGE:          0
cpu0->cpu0_L1D WRITE        ACCESS:    2462667 HIT:    2395355 MISS:      67312 MSHR_MERGE:      59124
cpu0->cpu0_L1D TRANSLATION  ACCESS:        160 HIT:         33 MISS:        127 MSHR_MERGE:          1
cpu0->cpu0_L1D PREFETCH REQUESTED:          0 ISSUED:          0 USEFUL:          0 USELESS:          0
cpu0->cpu0_L1D AVERAGE MISS LATENCY: 15.51 cycles
cpu0->cpu0_ITLB TOTAL        ACCESS:      66950 HIT:      66950 MISS:          0 MSHR_MERGE:          0
cpu0->cpu0_ITLB LOAD         ACCESS:      66950 HIT:      66950 MISS:          0 MSHR_MERGE:          0
cpu0->cpu0_ITLB RFO          ACCESS:          0 HIT:          0 MISS:          0 MSHR_MERGE:          0
cpu0->cpu0_ITLB PREFETCH     ACCESS:          0 HIT:          0 MISS:          0 MSHR_MERGE:          0
cpu0->cpu0_ITLB WRITE        ACCESS:          0 HIT:          0 MISS:          0 MSHR_MERGE:          0
cpu0->cpu0_ITLB TRANSLATION  ACCESS:          0 HIT:          0 MISS:          0 MSHR_MERGE:          0
cpu0->cpu0_ITLB PREFETCH REQUESTED:          0 ISSUED:          0 USEFUL:          0 USELESS:          0
cpu0->cpu0_ITLB AVERAGE MISS LATENCY: - cycles
cpu0->cpu0_DTLB TOTAL        ACCESS:    6500336 HIT:    6493526 MISS:       6810 MSHR_MERGE:       1580
cpu0->cpu0_DTLB LOAD         ACCESS:    6500336 HIT:    6493526 MISS:       6810 MSHR_MERGE:       1580
cpu0->cpu0_DTLB RFO          ACCESS:          0 HIT:          0 MISS:          0 MSHR_MERGE:          0
cpu0->cpu0_DTLB PREFETCH     ACCESS:          0 HIT:          0 MISS:          0 MSHR_MERGE:          0
cpu0->cpu0_DTLB WRITE        ACCESS:          0 HIT:          0 MISS:          0 MSHR_MERGE:          0
cpu0->cpu0_DTLB TRANSLATION  ACCESS:          0 HIT:          0 MISS:          0 MSHR_MERGE:          0
cpu0->cpu0_DTLB PREFETCH REQUESTED:          0 ISSUED:          0 USEFUL:          0 USELESS:          0
cpu0->cpu0_DTLB AVERAGE MISS LATENCY: 15.72 cycles
cpu0->LLC TOTAL        ACCESS:      17629 HIT:      12239 MISS:       5390 MSHR_MERGE:          0
cpu0->LLC LOAD         ACCESS:      10750 HIT:       9301 MISS:       1449 MSHR_MERGE:          0
cpu0->LLC RFO          ACCESS:       3873 HIT:         40 MISS:       3833 MSHR_MERGE:          0
cpu0->LLC PREFETCH     ACCESS:          0 HIT:          0 MISS:          0 MSHR_MERGE:          0
cpu0->LLC WRITE        ACCESS:       2893 HIT:       2893 MISS:          0 MSHR_MERGE:          0
cpu0->LLC TRANSLATION  ACCESS:        113 HIT:          5 MISS:        108 MSHR_MERGE:          0
cpu0->LLC PREFETCH REQUESTED:          0 ISSUED:          0 USEFUL:          0 USELESS:          0
cpu0->LLC AVERAGE MISS LATENCY: 161.1 cycles

DRAM Statistics

Channel 0 RQ ROW_BUFFER_HIT:       1363
  ROW_BUFFER_MISS:       4027
  AVG DBUS CONGESTED CYCLE: 2.66
Channel 0 WQ ROW_BUFFER_HIT:          0
  ROW_BUFFER_MISS:          0
  FULL:          0
Channel 0 REFRESHES ISSUED:       1223
