[VMEM] WARNING: physical memory size is smaller than virtual memory size.

*** ChampSim Multicore Out-of-Order Simulator ***
Warmup Instructions: 5000000
Simulation Instructions: 25000000
Number of CPUs: 1
Page size: 4096

Off-chip DRAM Size: 16 GiB Channels: 1 Width: 64-bit Data Rate: 3205 MT/s
Warmup finished CPU 0 instructions: 5000001 cycles: 1471164 cumulative IPC: 3.399 (Simulation time: 00 hr 00 min 18 sec)
Warmup complete CPU 0 instructions: 5000001 cycles: 1471164 cumulative IPC: 3.399 (Simulation time: 00 hr 00 min 18 sec)
Heartbeat CPU 0 instructions: 10000004 cycles: 3919232 heartbeat IPC: 2.552 cumulative IPC: 2.042 (Simulation time: 00 hr 00 min 47 sec)
Heartbeat CPU 0 instructions: 20000005 cycles: 12319240 heartbeat IPC: 1.19 cumulative IPC: 1.383 (Simulation time: 00 hr 01 min 55 sec)
Simulation finished CPU 0 instructions: 25000001 cycles: 17571687 cumulative IPC: 1.423 (Simulation time: 00 hr 02 min 51 sec)
Simulation complete CPU 0 instructions: 25000001 cycles: 17571687 cumulative IPC: 1.423 (Simulation time: 00 hr 02 min 51 sec)

ChampSim completed all CPUs

=== Simulation ===
CPU 0 runs ../../hw2/traces/654.roms_s-293B.champsimtrace.xz

Region of Interest Statistics

CPU 0 cumulative IPC: 1.423 instructions: 25000001 cycles: 17571687
CPU 0 Branch Prediction Accuracy: 99.8% MPKI: 0.02152 Average ROB Occupancy at Mispredict: 337.1
Branch type MPKI
BRANCH_DIRECT_JUMP: 0
BRANCH_INDIRECT: 0
BRANCH_CONDITIONAL: 0.02152
BRANCH_DIRECT_CALL: 0
BRANCH_INDIRECT_CALL: 0
BRANCH_RETURN: 0

cpu0->cpu0_STLB TOTAL        ACCESS:       6460 HIT:       4208 MISS:       2252 MSHR_MERGE:          0
cpu0->cpu0_STLB LOAD         ACCESS:       6460 HIT:       4208 MISS:       2252 MSHR_MERGE:          0
cpu0->cpu0_STLB RFO          ACCESS:          0 HIT:          0 MISS:          0 MSHR_MERGE:          0
cpu0->cpu0_STLB PREFETCH     ACCESS:          0 HIT:          0 MISS:          0 MSHR_MERGE:          0
cpu0->cpu0_STLB WRITE        ACCESS:          0 HIT:          0 MISS:          0 MSHR_MERGE:          0
cpu0->cpu0_STLB TRANSLATION  ACCESS:          0 HIT:          0 MISS:          0 MSHR_MERGE:          0
cpu0->cpu0_STLB PREFETCH REQUESTED:          0 ISSUED:          0 USEFUL:          0 USELESS:          0
cpu0->cpu0_STLB AVERAGE MISS LATENCY: 869.5 cycles
cpu0->cpu0_L2C TOTAL        ACCESS:     401660 HIT:     114078 MISS:     287582 MSHR_MERGE:          0
cpu0->cpu0_L2C LOAD         ACCESS:     146972 HIT:      36498 MISS:     110474 MSHR_MERGE:          0
cpu0->cpu0_L2C RFO          ACCESS:     124937 HIT:      18338 MISS:     106599 MSHR_MERGE:          0
cpu0->cpu0_L2C PREFETCH     ACCESS:          0 HIT:          0 MISS:          0 MSHR_MERGE:          0
cpu0->cpu0_L2C WRITE        ACCESS:     125179 HIT:      58975 MISS:      66204 MSHR_MERGE:          0
cpu0->cpu0_L2C TRANSLATION  ACCESS:       4572 HIT:        267 MISS:       4305 MSHR_MERGE:          0
cpu0->cpu0_L2C PREFETCH REQUESTED:          0 ISSUED:          0 USEFUL:          0 USELESS:          0
cpu0->cpu0_L2C AVERAGE MISS LATENCY: 122.6 cycles
cpu0->cpu0_L1I TOTAL        ACCESS:    4960919 HIT:    4960911 MISS:          8 MSHR_MERGE:          2
cpu0->cpu0_L1I LOAD         ACCESS:    4960919 HIT:    4960911 MISS:          8 MSHR_MERGE:          2
cpu0->cpu0_L1I RFO          ACCESS:          0 HIT:          0 MISS:          0 MSHR_MERGE:          0
cpu0->cpu0_L1I PREFETCH     ACCESS:          0 HIT:          0 MISS:          0 MSHR_MERGE:          0
cpu0->cpu0_L1I WRITE        ACCESS:          0 HIT:          0 MISS:          0 MSHR_MERGE:          0
cpu0->cpu0_L1I TRANSLATION  ACCESS:          0 HIT:          0 MISS:          0 MSHR_MERGE:          0
cpu0->cpu0_L1I PREFETCH REQUESTED:          0 ISSUED:          0 USEFUL:          0 USELESS:          0
cpu0->cpu0_L1I AVERAGE MISS LATENCY: 201.3 cycles
cpu0->cpu0_L1D TOTAL        ACCESS:    7640355 HIT:    7021775 MISS:     618580 MSHR_MERGE:     342085
cpu0->cpu0_L1D LOAD         ACCESS:    5268101 HIT:    5028976 MISS:     239125 MSHR_MERGE:      92159
cpu0->cpu0_L1D RFO          ACCESS:          0 HIT:          0 MISS:          0 MSHR_MERGE:          0
cpu0->cpu0_L1D PREFETCH     ACCESS:          0 HIT:          0 MISS:          0 MSHR_MERGE:          0
cpu0->cpu0_L1D WRITE        ACCESS:    2366627 HIT:    1991765 MISS:     374862 MSHR_MERGE:     249905
cpu0->cpu0_L1D TRANSLATION  ACCESS:       5627 HIT:       1034 MISS:       4593 MSHR_MERGE:         21
cpu0->cpu0_L1D PREFETCH REQUESTED:          0 ISSUED:          0 USEFUL:          0 USELESS:          0
cpu0->cpu0_L1D AVERAGE MISS LATENCY: 135.4 cycles
cpu0->cpu0_ITLB TOTAL        ACCESS:    3646969 HIT:    3646969 MISS:          0 MSHR_MERGE:          0
cpu0->cpu0_ITLB LOAD         ACCESS:    3646969 HIT:    3646969 MISS:          0 MSHR_MERGE:          0
cpu0->cpu0_ITLB RFO          ACCESS:          0 HIT:          0 MISS:          0 MSHR_MERGE:          0
cpu0->cpu0_ITLB PREFETCH     ACCESS:          0 HIT:          0 MISS:          0 MSHR_MERGE:          0
cpu0->cpu0_ITLB WRITE        ACCESS:          0 HIT:          0 MISS:          0 MSHR_MERGE:          0
cpu0->cpu0_ITLB TRANSLATION  ACCESS:          0 HIT:          0 MISS:          0 MSHR_MERGE:          0
cpu0->cpu0_ITLB PREFETCH REQUESTED:          0 ISSUED:          0 USEFUL:          0 USELESS:          0
cpu0->cpu0_ITLB AVERAGE MISS LATENCY: - cycles
cpu0->cpu0_DTLB TOTAL        ACCESS:    7198810 HIT:    7182425 MISS:      16385 MSHR_MERGE:       9925
cpu0->cpu0_DTLB LOAD         ACCESS:    7198810 HIT:    7182425 MISS:      16385 MSHR_MERGE:       9925
cpu0->cpu0_DTLB RFO          ACCESS:          0 HIT:          0 MISS:          0 MSHR_MERGE:          0
cpu0->cpu0_DTLB PREFETCH     ACCESS:          0 HIT:          0 MISS:          0 MSHR_MERGE:          0
cpu0->cpu0_DTLB WRITE        ACCESS:          0 HIT:          0 MISS:          0 MSHR_MERGE:          0
cpu0->cpu0_DTLB TRANSLATION  ACCESS:          0 HIT:          0 MISS:          0 MSHR_MERGE:          0
cpu0->cpu0_DTLB PREFETCH REQUESTED:          0 ISSUED:          0 USEFUL:          0 USELESS:          0
cpu0->cpu0_DTLB AVERAGE MISS LATENCY: 308.5 cycles
cpu0->LLC TOTAL        ACCESS:     333958 HIT:     187440 MISS:     146518 MSHR_MERGE:          0
cpu0->LLC LOAD         ACCESS:     110474 HIT:      55488 MISS:      54986 MSHR_MERGE:          0
cpu0->LLC RFO          ACCESS:     106599 HIT:      28370 MISS:      78229 MSHR_MERGE:          0
cpu0->LLC PREFETCH     ACCESS:          0 HIT:          0 MISS:          0 MSHR_MERGE:          0
cpu0->LLC WRITE        ACCESS:     112580 HIT:     103183 MISS:       9397 MSHR_MERGE:          0
cpu0->LLC TRANSLATION  ACCESS:       4305 HIT:        399 MISS:       3906 MSHR_MERGE:          0
cpu0->LLC PREFETCH REQUESTED:          0 ISSUED:          0 USEFUL:          0 USELESS:          0
cpu0->LLC AVERAGE MISS LATENCY: 215.7 cycles

DRAM Statistics

Channel 0 RQ ROW_BUFFER_HIT:        716
  ROW_BUFFER_MISS:     136222
  AVG DBUS CONGESTED CYCLE: 7.686
Channel 0 WQ ROW_BUFFER_HIT:      25721
  ROW_BUFFER_MISS:      60574
  FULL:          0
Channel 0 REFRESHES ISSUED:       1464
