
---------- Begin Simulation Statistics ----------
simSeconds                                   0.003410                       # Number of seconds simulated (Second)
simTicks                                   3409823097                       # Number of ticks simulated (Tick)
finalTick                                  3409823097                       # Number of ticks from beginning of simulation (restored from checkpoints and never reset) (Tick)
simFreq                                  1000000000000                       # The number of ticks per simulated second ((Tick/Second))
hostSeconds                                     54.12                       # Real time elapsed on the host (Second)
hostTickRate                                 63005286                       # The number of ticks simulated per host second (ticks/s) ((Tick/Second))
hostMemory                                     288820                       # Number of bytes of host memory used (Byte)
simInsts                                     15266628                       # Number of instructions simulated (Count)
simOps                                       16310273                       # Number of ops (including micro ops) simulated (Count)
hostInstRate                                   282089                       # Simulator instruction rate (inst/s) ((Count/Second))
hostOpRate                                     301373                       # Simulator op (including micro ops) rate (op/s) ((Count/Second))
board.cache_hierarchy.l1dcaches.demandHits::processor.cores.core.data      4882864                       # number of demand (read+write) hits (Count)
board.cache_hierarchy.l1dcaches.demandHits::total      4882864                       # number of demand (read+write) hits (Count)
board.cache_hierarchy.l1dcaches.overallHits::processor.cores.core.data      4882864                       # number of overall hits (Count)
board.cache_hierarchy.l1dcaches.overallHits::total      4882864                       # number of overall hits (Count)
board.cache_hierarchy.l1dcaches.demandMisses::processor.cores.core.data        50301                       # number of demand (read+write) misses (Count)
board.cache_hierarchy.l1dcaches.demandMisses::total        50301                       # number of demand (read+write) misses (Count)
board.cache_hierarchy.l1dcaches.overallMisses::processor.cores.core.data        50301                       # number of overall misses (Count)
board.cache_hierarchy.l1dcaches.overallMisses::total        50301                       # number of overall misses (Count)
board.cache_hierarchy.l1dcaches.demandMissLatency::processor.cores.core.data    895227112                       # number of demand (read+write) miss ticks (Tick)
board.cache_hierarchy.l1dcaches.demandMissLatency::total    895227112                       # number of demand (read+write) miss ticks (Tick)
board.cache_hierarchy.l1dcaches.overallMissLatency::processor.cores.core.data    895227112                       # number of overall miss ticks (Tick)
board.cache_hierarchy.l1dcaches.overallMissLatency::total    895227112                       # number of overall miss ticks (Tick)
board.cache_hierarchy.l1dcaches.demandAccesses::processor.cores.core.data      4933165                       # number of demand (read+write) accesses (Count)
board.cache_hierarchy.l1dcaches.demandAccesses::total      4933165                       # number of demand (read+write) accesses (Count)
board.cache_hierarchy.l1dcaches.overallAccesses::processor.cores.core.data      4933165                       # number of overall (read+write) accesses (Count)
board.cache_hierarchy.l1dcaches.overallAccesses::total      4933165                       # number of overall (read+write) accesses (Count)
board.cache_hierarchy.l1dcaches.demandMissRate::processor.cores.core.data     0.010196                       # miss rate for demand accesses (Ratio)
board.cache_hierarchy.l1dcaches.demandMissRate::total     0.010196                       # miss rate for demand accesses (Ratio)
board.cache_hierarchy.l1dcaches.overallMissRate::processor.cores.core.data     0.010196                       # miss rate for overall accesses (Ratio)
board.cache_hierarchy.l1dcaches.overallMissRate::total     0.010196                       # miss rate for overall accesses (Ratio)
board.cache_hierarchy.l1dcaches.demandAvgMissLatency::processor.cores.core.data 17797.401881                       # average overall miss latency in ticks ((Tick/Count))
board.cache_hierarchy.l1dcaches.demandAvgMissLatency::total 17797.401881                       # average overall miss latency in ticks ((Tick/Count))
board.cache_hierarchy.l1dcaches.overallAvgMissLatency::processor.cores.core.data 17797.401881                       # average overall miss latency ((Tick/Count))
board.cache_hierarchy.l1dcaches.overallAvgMissLatency::total 17797.401881                       # average overall miss latency ((Tick/Count))
board.cache_hierarchy.l1dcaches.blockedCycles::no_mshrs         5275                       # number of cycles access was blocked (Cycle)
board.cache_hierarchy.l1dcaches.blockedCycles::no_wbuffers            0                       # number of cycles access was blocked (Cycle)
board.cache_hierarchy.l1dcaches.blockedCycles::no_targets        35465                       # number of cycles access was blocked (Cycle)
board.cache_hierarchy.l1dcaches.blockedCauses::no_mshrs          276                       # number of times access was blocked (Count)
board.cache_hierarchy.l1dcaches.blockedCauses::no_wbuffers            0                       # number of times access was blocked (Count)
board.cache_hierarchy.l1dcaches.blockedCauses::no_targets         1663                       # number of times access was blocked (Count)
board.cache_hierarchy.l1dcaches.avgBlocked::no_mshrs    19.112319                       # average number of cycles each access was blocked ((Cycle/Count))
board.cache_hierarchy.l1dcaches.avgBlocked::no_wbuffers          nan                       # average number of cycles each access was blocked ((Cycle/Count))
board.cache_hierarchy.l1dcaches.avgBlocked::no_targets    21.325917                       # average number of cycles each access was blocked ((Cycle/Count))
board.cache_hierarchy.l1dcaches.writebacks::writebacks        57376                       # number of writebacks (Count)
board.cache_hierarchy.l1dcaches.writebacks::total        57376                       # number of writebacks (Count)
board.cache_hierarchy.l1dcaches.demandMshrHits::processor.cores.core.data        34339                       # number of demand (read+write) MSHR hits (Count)
board.cache_hierarchy.l1dcaches.demandMshrHits::total        34339                       # number of demand (read+write) MSHR hits (Count)
board.cache_hierarchy.l1dcaches.overallMshrHits::processor.cores.core.data        34339                       # number of overall MSHR hits (Count)
board.cache_hierarchy.l1dcaches.overallMshrHits::total        34339                       # number of overall MSHR hits (Count)
board.cache_hierarchy.l1dcaches.demandMshrMisses::processor.cores.core.data        15962                       # number of demand (read+write) MSHR misses (Count)
board.cache_hierarchy.l1dcaches.demandMshrMisses::total        15962                       # number of demand (read+write) MSHR misses (Count)
board.cache_hierarchy.l1dcaches.overallMshrMisses::cache_hierarchy.l1dcaches.prefetcher.prefetchers0        13769                       # number of overall MSHR misses (Count)
board.cache_hierarchy.l1dcaches.overallMshrMisses::cache_hierarchy.l1dcaches.prefetcher.prefetchers1        15638                       # number of overall MSHR misses (Count)
board.cache_hierarchy.l1dcaches.overallMshrMisses::cache_hierarchy.l1dcaches.prefetcher.prefetchers2        13033                       # number of overall MSHR misses (Count)
board.cache_hierarchy.l1dcaches.overallMshrMisses::processor.cores.core.data        15962                       # number of overall MSHR misses (Count)
board.cache_hierarchy.l1dcaches.overallMshrMisses::total        58402                       # number of overall MSHR misses (Count)
board.cache_hierarchy.l1dcaches.demandMshrMissLatency::processor.cores.core.data    308963207                       # number of demand (read+write) MSHR miss ticks (Tick)
board.cache_hierarchy.l1dcaches.demandMshrMissLatency::total    308963207                       # number of demand (read+write) MSHR miss ticks (Tick)
board.cache_hierarchy.l1dcaches.overallMshrMissLatency::cache_hierarchy.l1dcaches.prefetcher.prefetchers0    193472682                       # number of overall MSHR miss ticks (Tick)
board.cache_hierarchy.l1dcaches.overallMshrMissLatency::cache_hierarchy.l1dcaches.prefetcher.prefetchers1    312304529                       # number of overall MSHR miss ticks (Tick)
board.cache_hierarchy.l1dcaches.overallMshrMissLatency::cache_hierarchy.l1dcaches.prefetcher.prefetchers2    312546702                       # number of overall MSHR miss ticks (Tick)
board.cache_hierarchy.l1dcaches.overallMshrMissLatency::processor.cores.core.data    308963207                       # number of overall MSHR miss ticks (Tick)
board.cache_hierarchy.l1dcaches.overallMshrMissLatency::total   1127287120                       # number of overall MSHR miss ticks (Tick)
board.cache_hierarchy.l1dcaches.demandMshrMissRate::processor.cores.core.data     0.003236                       # mshr miss ratio for demand accesses (Ratio)
board.cache_hierarchy.l1dcaches.demandMshrMissRate::total     0.003236                       # mshr miss ratio for demand accesses (Ratio)
board.cache_hierarchy.l1dcaches.overallMshrMissRate::cache_hierarchy.l1dcaches.prefetcher.prefetchers0          inf                       # mshr miss ratio for overall accesses (Ratio)
board.cache_hierarchy.l1dcaches.overallMshrMissRate::cache_hierarchy.l1dcaches.prefetcher.prefetchers1          inf                       # mshr miss ratio for overall accesses (Ratio)
board.cache_hierarchy.l1dcaches.overallMshrMissRate::cache_hierarchy.l1dcaches.prefetcher.prefetchers2          inf                       # mshr miss ratio for overall accesses (Ratio)
board.cache_hierarchy.l1dcaches.overallMshrMissRate::processor.cores.core.data     0.003236                       # mshr miss ratio for overall accesses (Ratio)
board.cache_hierarchy.l1dcaches.overallMshrMissRate::total     0.011839                       # mshr miss ratio for overall accesses (Ratio)
board.cache_hierarchy.l1dcaches.demandAvgMshrMissLatency::processor.cores.core.data 19356.171344                       # average overall mshr miss latency ((Tick/Count))
board.cache_hierarchy.l1dcaches.demandAvgMshrMissLatency::total 19356.171344                       # average overall mshr miss latency ((Tick/Count))
board.cache_hierarchy.l1dcaches.overallAvgMshrMissLatency::cache_hierarchy.l1dcaches.prefetcher.prefetchers0 14051.324134                       # average overall mshr miss latency ((Tick/Count))
board.cache_hierarchy.l1dcaches.overallAvgMshrMissLatency::cache_hierarchy.l1dcaches.prefetcher.prefetchers1 19970.874089                       # average overall mshr miss latency ((Tick/Count))
board.cache_hierarchy.l1dcaches.overallAvgMshrMissLatency::cache_hierarchy.l1dcaches.prefetcher.prefetchers2 23981.178700                       # average overall mshr miss latency ((Tick/Count))
board.cache_hierarchy.l1dcaches.overallAvgMshrMissLatency::processor.cores.core.data 19356.171344                       # average overall mshr miss latency ((Tick/Count))
board.cache_hierarchy.l1dcaches.overallAvgMshrMissLatency::total 19302.200610                       # average overall mshr miss latency ((Tick/Count))
board.cache_hierarchy.l1dcaches.replacements        57376                       # number of replacements (Count)
board.cache_hierarchy.l1dcaches.HardPFReq.mshrMisses::cache_hierarchy.l1dcaches.prefetcher.prefetchers0        13769                       # number of HardPFReq MSHR misses (Count)
board.cache_hierarchy.l1dcaches.HardPFReq.mshrMisses::cache_hierarchy.l1dcaches.prefetcher.prefetchers1        15638                       # number of HardPFReq MSHR misses (Count)
board.cache_hierarchy.l1dcaches.HardPFReq.mshrMisses::cache_hierarchy.l1dcaches.prefetcher.prefetchers2        13033                       # number of HardPFReq MSHR misses (Count)
board.cache_hierarchy.l1dcaches.HardPFReq.mshrMisses::total        42440                       # number of HardPFReq MSHR misses (Count)
board.cache_hierarchy.l1dcaches.HardPFReq.mshrMissLatency::cache_hierarchy.l1dcaches.prefetcher.prefetchers0    193472682                       # number of HardPFReq MSHR miss ticks (Tick)
board.cache_hierarchy.l1dcaches.HardPFReq.mshrMissLatency::cache_hierarchy.l1dcaches.prefetcher.prefetchers1    312304529                       # number of HardPFReq MSHR miss ticks (Tick)
board.cache_hierarchy.l1dcaches.HardPFReq.mshrMissLatency::cache_hierarchy.l1dcaches.prefetcher.prefetchers2    312546702                       # number of HardPFReq MSHR miss ticks (Tick)
board.cache_hierarchy.l1dcaches.HardPFReq.mshrMissLatency::total    818323913                       # number of HardPFReq MSHR miss ticks (Tick)
board.cache_hierarchy.l1dcaches.HardPFReq.mshrMissRate::cache_hierarchy.l1dcaches.prefetcher.prefetchers0          inf                       # mshr miss rate for HardPFReq accesses (Ratio)
board.cache_hierarchy.l1dcaches.HardPFReq.mshrMissRate::cache_hierarchy.l1dcaches.prefetcher.prefetchers1          inf                       # mshr miss rate for HardPFReq accesses (Ratio)
board.cache_hierarchy.l1dcaches.HardPFReq.mshrMissRate::cache_hierarchy.l1dcaches.prefetcher.prefetchers2          inf                       # mshr miss rate for HardPFReq accesses (Ratio)
board.cache_hierarchy.l1dcaches.HardPFReq.mshrMissRate::total          inf                       # mshr miss rate for HardPFReq accesses (Ratio)
board.cache_hierarchy.l1dcaches.HardPFReq.avgMshrMissLatency::cache_hierarchy.l1dcaches.prefetcher.prefetchers0 14051.324134                       # average HardPFReq mshr miss latency ((Tick/Count))
board.cache_hierarchy.l1dcaches.HardPFReq.avgMshrMissLatency::cache_hierarchy.l1dcaches.prefetcher.prefetchers1 19970.874089                       # average HardPFReq mshr miss latency ((Tick/Count))
board.cache_hierarchy.l1dcaches.HardPFReq.avgMshrMissLatency::cache_hierarchy.l1dcaches.prefetcher.prefetchers2 23981.178700                       # average HardPFReq mshr miss latency ((Tick/Count))
board.cache_hierarchy.l1dcaches.HardPFReq.avgMshrMissLatency::total 19281.901814                       # average HardPFReq mshr miss latency ((Tick/Count))
board.cache_hierarchy.l1dcaches.LoadLockedReq.hits::processor.cores.core.data           19                       # number of LoadLockedReq hits (Count)
board.cache_hierarchy.l1dcaches.LoadLockedReq.hits::total           19                       # number of LoadLockedReq hits (Count)
board.cache_hierarchy.l1dcaches.LoadLockedReq.misses::processor.cores.core.data            1                       # number of LoadLockedReq misses (Count)
board.cache_hierarchy.l1dcaches.LoadLockedReq.misses::total            1                       # number of LoadLockedReq misses (Count)
board.cache_hierarchy.l1dcaches.LoadLockedReq.missLatency::processor.cores.core.data         6993                       # number of LoadLockedReq miss ticks (Tick)
board.cache_hierarchy.l1dcaches.LoadLockedReq.missLatency::total         6993                       # number of LoadLockedReq miss ticks (Tick)
board.cache_hierarchy.l1dcaches.LoadLockedReq.accesses::processor.cores.core.data           20                       # number of LoadLockedReq accesses(hits+misses) (Count)
board.cache_hierarchy.l1dcaches.LoadLockedReq.accesses::total           20                       # number of LoadLockedReq accesses(hits+misses) (Count)
board.cache_hierarchy.l1dcaches.LoadLockedReq.missRate::processor.cores.core.data     0.050000                       # miss rate for LoadLockedReq accesses (Ratio)
board.cache_hierarchy.l1dcaches.LoadLockedReq.missRate::total     0.050000                       # miss rate for LoadLockedReq accesses (Ratio)
board.cache_hierarchy.l1dcaches.LoadLockedReq.avgMissLatency::processor.cores.core.data         6993                       # average LoadLockedReq miss latency ((Tick/Count))
board.cache_hierarchy.l1dcaches.LoadLockedReq.avgMissLatency::total         6993                       # average LoadLockedReq miss latency ((Tick/Count))
board.cache_hierarchy.l1dcaches.LoadLockedReq.mshrMisses::processor.cores.core.data            1                       # number of LoadLockedReq MSHR misses (Count)
board.cache_hierarchy.l1dcaches.LoadLockedReq.mshrMisses::total            1                       # number of LoadLockedReq MSHR misses (Count)
board.cache_hierarchy.l1dcaches.LoadLockedReq.mshrMissLatency::processor.cores.core.data         5661                       # number of LoadLockedReq MSHR miss ticks (Tick)
board.cache_hierarchy.l1dcaches.LoadLockedReq.mshrMissLatency::total         5661                       # number of LoadLockedReq MSHR miss ticks (Tick)
board.cache_hierarchy.l1dcaches.LoadLockedReq.mshrMissRate::processor.cores.core.data     0.050000                       # mshr miss rate for LoadLockedReq accesses (Ratio)
board.cache_hierarchy.l1dcaches.LoadLockedReq.mshrMissRate::total     0.050000                       # mshr miss rate for LoadLockedReq accesses (Ratio)
board.cache_hierarchy.l1dcaches.LoadLockedReq.avgMshrMissLatency::processor.cores.core.data         5661                       # average LoadLockedReq mshr miss latency ((Tick/Count))
board.cache_hierarchy.l1dcaches.LoadLockedReq.avgMshrMissLatency::total         5661                       # average LoadLockedReq mshr miss latency ((Tick/Count))
board.cache_hierarchy.l1dcaches.ReadReq.hits::processor.cores.core.data      3259730                       # number of ReadReq hits (Count)
board.cache_hierarchy.l1dcaches.ReadReq.hits::total      3259730                       # number of ReadReq hits (Count)
board.cache_hierarchy.l1dcaches.ReadReq.misses::processor.cores.core.data        25958                       # number of ReadReq misses (Count)
board.cache_hierarchy.l1dcaches.ReadReq.misses::total        25958                       # number of ReadReq misses (Count)
board.cache_hierarchy.l1dcaches.ReadReq.missLatency::processor.cores.core.data    318546801                       # number of ReadReq miss ticks (Tick)
board.cache_hierarchy.l1dcaches.ReadReq.missLatency::total    318546801                       # number of ReadReq miss ticks (Tick)
board.cache_hierarchy.l1dcaches.ReadReq.accesses::processor.cores.core.data      3285688                       # number of ReadReq accesses(hits+misses) (Count)
board.cache_hierarchy.l1dcaches.ReadReq.accesses::total      3285688                       # number of ReadReq accesses(hits+misses) (Count)
board.cache_hierarchy.l1dcaches.ReadReq.missRate::processor.cores.core.data     0.007900                       # miss rate for ReadReq accesses (Ratio)
board.cache_hierarchy.l1dcaches.ReadReq.missRate::total     0.007900                       # miss rate for ReadReq accesses (Ratio)
board.cache_hierarchy.l1dcaches.ReadReq.avgMissLatency::processor.cores.core.data 12271.623430                       # average ReadReq miss latency ((Tick/Count))
board.cache_hierarchy.l1dcaches.ReadReq.avgMissLatency::total 12271.623430                       # average ReadReq miss latency ((Tick/Count))
board.cache_hierarchy.l1dcaches.ReadReq.mshrHits::processor.cores.core.data        19191                       # number of ReadReq MSHR hits (Count)
board.cache_hierarchy.l1dcaches.ReadReq.mshrHits::total        19191                       # number of ReadReq MSHR hits (Count)
board.cache_hierarchy.l1dcaches.ReadReq.mshrMisses::processor.cores.core.data         6767                       # number of ReadReq MSHR misses (Count)
board.cache_hierarchy.l1dcaches.ReadReq.mshrMisses::total         6767                       # number of ReadReq MSHR misses (Count)
board.cache_hierarchy.l1dcaches.ReadReq.mshrMissLatency::processor.cores.core.data     90093150                       # number of ReadReq MSHR miss ticks (Tick)
board.cache_hierarchy.l1dcaches.ReadReq.mshrMissLatency::total     90093150                       # number of ReadReq MSHR miss ticks (Tick)
board.cache_hierarchy.l1dcaches.ReadReq.mshrMissRate::processor.cores.core.data     0.002060                       # mshr miss rate for ReadReq accesses (Ratio)
board.cache_hierarchy.l1dcaches.ReadReq.mshrMissRate::total     0.002060                       # mshr miss rate for ReadReq accesses (Ratio)
board.cache_hierarchy.l1dcaches.ReadReq.avgMshrMissLatency::processor.cores.core.data 13313.602778                       # average ReadReq mshr miss latency ((Tick/Count))
board.cache_hierarchy.l1dcaches.ReadReq.avgMshrMissLatency::total 13313.602778                       # average ReadReq mshr miss latency ((Tick/Count))
board.cache_hierarchy.l1dcaches.StoreCondReq.hits::processor.cores.core.data            7                       # number of StoreCondReq hits (Count)
board.cache_hierarchy.l1dcaches.StoreCondReq.hits::total            7                       # number of StoreCondReq hits (Count)
board.cache_hierarchy.l1dcaches.StoreCondReq.accesses::processor.cores.core.data            7                       # number of StoreCondReq accesses(hits+misses) (Count)
board.cache_hierarchy.l1dcaches.StoreCondReq.accesses::total            7                       # number of StoreCondReq accesses(hits+misses) (Count)
board.cache_hierarchy.l1dcaches.SwapReq.hits::processor.cores.core.data           52                       # number of SwapReq hits (Count)
board.cache_hierarchy.l1dcaches.SwapReq.hits::total           52                       # number of SwapReq hits (Count)
board.cache_hierarchy.l1dcaches.SwapReq.misses::processor.cores.core.data            4                       # number of SwapReq misses (Count)
board.cache_hierarchy.l1dcaches.SwapReq.misses::total            4                       # number of SwapReq misses (Count)
board.cache_hierarchy.l1dcaches.SwapReq.missLatency::processor.cores.core.data        30636                       # number of SwapReq miss ticks (Tick)
board.cache_hierarchy.l1dcaches.SwapReq.missLatency::total        30636                       # number of SwapReq miss ticks (Tick)
board.cache_hierarchy.l1dcaches.SwapReq.accesses::processor.cores.core.data           56                       # number of SwapReq accesses(hits+misses) (Count)
board.cache_hierarchy.l1dcaches.SwapReq.accesses::total           56                       # number of SwapReq accesses(hits+misses) (Count)
board.cache_hierarchy.l1dcaches.SwapReq.missRate::processor.cores.core.data     0.071429                       # miss rate for SwapReq accesses (Ratio)
board.cache_hierarchy.l1dcaches.SwapReq.missRate::total     0.071429                       # miss rate for SwapReq accesses (Ratio)
board.cache_hierarchy.l1dcaches.SwapReq.avgMissLatency::processor.cores.core.data         7659                       # average SwapReq miss latency ((Tick/Count))
board.cache_hierarchy.l1dcaches.SwapReq.avgMissLatency::total         7659                       # average SwapReq miss latency ((Tick/Count))
board.cache_hierarchy.l1dcaches.SwapReq.mshrMisses::processor.cores.core.data            4                       # number of SwapReq MSHR misses (Count)
board.cache_hierarchy.l1dcaches.SwapReq.mshrMisses::total            4                       # number of SwapReq MSHR misses (Count)
board.cache_hierarchy.l1dcaches.SwapReq.mshrMissLatency::processor.cores.core.data        25308                       # number of SwapReq MSHR miss ticks (Tick)
board.cache_hierarchy.l1dcaches.SwapReq.mshrMissLatency::total        25308                       # number of SwapReq MSHR miss ticks (Tick)
board.cache_hierarchy.l1dcaches.SwapReq.mshrMissRate::processor.cores.core.data     0.071429                       # mshr miss rate for SwapReq accesses (Ratio)
board.cache_hierarchy.l1dcaches.SwapReq.mshrMissRate::total     0.071429                       # mshr miss rate for SwapReq accesses (Ratio)
board.cache_hierarchy.l1dcaches.SwapReq.avgMshrMissLatency::processor.cores.core.data         6327                       # average SwapReq mshr miss latency ((Tick/Count))
board.cache_hierarchy.l1dcaches.SwapReq.avgMshrMissLatency::total         6327                       # average SwapReq mshr miss latency ((Tick/Count))
board.cache_hierarchy.l1dcaches.WriteLineReq.misses::processor.cores.core.data           14                       # number of WriteLineReq misses (Count)
board.cache_hierarchy.l1dcaches.WriteLineReq.misses::total           14                       # number of WriteLineReq misses (Count)
board.cache_hierarchy.l1dcaches.WriteLineReq.missLatency::processor.cores.core.data       481182                       # number of WriteLineReq miss ticks (Tick)
board.cache_hierarchy.l1dcaches.WriteLineReq.missLatency::total       481182                       # number of WriteLineReq miss ticks (Tick)
board.cache_hierarchy.l1dcaches.WriteLineReq.accesses::processor.cores.core.data           14                       # number of WriteLineReq accesses(hits+misses) (Count)
board.cache_hierarchy.l1dcaches.WriteLineReq.accesses::total           14                       # number of WriteLineReq accesses(hits+misses) (Count)
board.cache_hierarchy.l1dcaches.WriteLineReq.missRate::processor.cores.core.data            1                       # miss rate for WriteLineReq accesses (Ratio)
board.cache_hierarchy.l1dcaches.WriteLineReq.missRate::total            1                       # miss rate for WriteLineReq accesses (Ratio)
board.cache_hierarchy.l1dcaches.WriteLineReq.avgMissLatency::processor.cores.core.data 34370.142857                       # average WriteLineReq miss latency ((Tick/Count))
board.cache_hierarchy.l1dcaches.WriteLineReq.avgMissLatency::total 34370.142857                       # average WriteLineReq miss latency ((Tick/Count))
board.cache_hierarchy.l1dcaches.WriteLineReq.mshrHits::processor.cores.core.data            4                       # number of WriteLineReq MSHR hits (Count)
board.cache_hierarchy.l1dcaches.WriteLineReq.mshrHits::total            4                       # number of WriteLineReq MSHR hits (Count)
board.cache_hierarchy.l1dcaches.WriteLineReq.mshrMisses::processor.cores.core.data           10                       # number of WriteLineReq MSHR misses (Count)
board.cache_hierarchy.l1dcaches.WriteLineReq.mshrMisses::total           10                       # number of WriteLineReq MSHR misses (Count)
board.cache_hierarchy.l1dcaches.WriteLineReq.mshrMissLatency::processor.cores.core.data       124872                       # number of WriteLineReq MSHR miss ticks (Tick)
board.cache_hierarchy.l1dcaches.WriteLineReq.mshrMissLatency::total       124872                       # number of WriteLineReq MSHR miss ticks (Tick)
board.cache_hierarchy.l1dcaches.WriteLineReq.mshrMissRate::processor.cores.core.data     0.714286                       # mshr miss rate for WriteLineReq accesses (Ratio)
board.cache_hierarchy.l1dcaches.WriteLineReq.mshrMissRate::total     0.714286                       # mshr miss rate for WriteLineReq accesses (Ratio)
board.cache_hierarchy.l1dcaches.WriteLineReq.avgMshrMissLatency::processor.cores.core.data 12487.200000                       # average WriteLineReq mshr miss latency ((Tick/Count))
board.cache_hierarchy.l1dcaches.WriteLineReq.avgMshrMissLatency::total 12487.200000                       # average WriteLineReq mshr miss latency ((Tick/Count))
board.cache_hierarchy.l1dcaches.WriteReq.hits::processor.cores.core.data      1623134                       # number of WriteReq hits (Count)
board.cache_hierarchy.l1dcaches.WriteReq.hits::total      1623134                       # number of WriteReq hits (Count)
board.cache_hierarchy.l1dcaches.WriteReq.misses::processor.cores.core.data        24329                       # number of WriteReq misses (Count)
board.cache_hierarchy.l1dcaches.WriteReq.misses::total        24329                       # number of WriteReq misses (Count)
board.cache_hierarchy.l1dcaches.WriteReq.missLatency::processor.cores.core.data    576199129                       # number of WriteReq miss ticks (Tick)
board.cache_hierarchy.l1dcaches.WriteReq.missLatency::total    576199129                       # number of WriteReq miss ticks (Tick)
board.cache_hierarchy.l1dcaches.WriteReq.accesses::processor.cores.core.data      1647463                       # number of WriteReq accesses(hits+misses) (Count)
board.cache_hierarchy.l1dcaches.WriteReq.accesses::total      1647463                       # number of WriteReq accesses(hits+misses) (Count)
board.cache_hierarchy.l1dcaches.WriteReq.missRate::processor.cores.core.data     0.014768                       # miss rate for WriteReq accesses (Ratio)
board.cache_hierarchy.l1dcaches.WriteReq.missRate::total     0.014768                       # miss rate for WriteReq accesses (Ratio)
board.cache_hierarchy.l1dcaches.WriteReq.avgMissLatency::processor.cores.core.data 23683.633894                       # average WriteReq miss latency ((Tick/Count))
board.cache_hierarchy.l1dcaches.WriteReq.avgMissLatency::total 23683.633894                       # average WriteReq miss latency ((Tick/Count))
board.cache_hierarchy.l1dcaches.WriteReq.mshrHits::processor.cores.core.data        15144                       # number of WriteReq MSHR hits (Count)
board.cache_hierarchy.l1dcaches.WriteReq.mshrHits::total        15144                       # number of WriteReq MSHR hits (Count)
board.cache_hierarchy.l1dcaches.WriteReq.mshrMisses::processor.cores.core.data         9185                       # number of WriteReq MSHR misses (Count)
board.cache_hierarchy.l1dcaches.WriteReq.mshrMisses::total         9185                       # number of WriteReq MSHR misses (Count)
board.cache_hierarchy.l1dcaches.WriteReq.mshrMissLatency::processor.cores.core.data    218745185                       # number of WriteReq MSHR miss ticks (Tick)
board.cache_hierarchy.l1dcaches.WriteReq.mshrMissLatency::total    218745185                       # number of WriteReq MSHR miss ticks (Tick)
board.cache_hierarchy.l1dcaches.WriteReq.mshrMissRate::processor.cores.core.data     0.005575                       # mshr miss rate for WriteReq accesses (Ratio)
board.cache_hierarchy.l1dcaches.WriteReq.mshrMissRate::total     0.005575                       # mshr miss rate for WriteReq accesses (Ratio)
board.cache_hierarchy.l1dcaches.WriteReq.avgMshrMissLatency::processor.cores.core.data 23815.480131                       # average WriteReq mshr miss latency ((Tick/Count))
board.cache_hierarchy.l1dcaches.WriteReq.avgMshrMissLatency::total 23815.480131                       # average WriteReq mshr miss latency ((Tick/Count))
board.cache_hierarchy.l1dcaches.power_state.pwrStateResidencyTicks::UNDEFINED   3409823097                       # Cumulative time (in ticks) in various power states (Tick)
board.cache_hierarchy.l1dcaches.prefetcher.demandMshrMisses            0                       # demands not covered by prefetchs (Count)
board.cache_hierarchy.l1dcaches.prefetcher.pfIssued       104852                       # number of hwpf issued (Count)
board.cache_hierarchy.l1dcaches.prefetcher.pfUseful            0                       # number of useful prefetch (Count)
board.cache_hierarchy.l1dcaches.prefetcher.pfUsefulButMiss            0                       # number of hit on prefetch but cache block is not in an usable state (Count)
board.cache_hierarchy.l1dcaches.prefetcher.accuracy            0                       # accuracy of the prefetcher (Count)
board.cache_hierarchy.l1dcaches.prefetcher.coverage          nan                       # coverage brought by this prefetcher (Count)
board.cache_hierarchy.l1dcaches.prefetcher.pfHitInCache        58089                       # number of prefetches hitting in cache (Count)
board.cache_hierarchy.l1dcaches.prefetcher.pfHitInMSHR         4323                       # number of prefetches hitting in a MSHR (Count)
board.cache_hierarchy.l1dcaches.prefetcher.pfHitInWB            0                       # number of prefetches hit in the Write Buffer (Count)
board.cache_hierarchy.l1dcaches.prefetcher.pfLate        62412                       # number of late prefetches (hitting in cache, MSHR or WB) (Count)
board.cache_hierarchy.l1dcaches.prefetcher.power_state.pwrStateResidencyTicks::UNDEFINED   3409823097                       # Cumulative time (in ticks) in various power states (Tick)
board.cache_hierarchy.l1dcaches.prefetcher.prefetchers0.demandMshrMisses        15962                       # demands not covered by prefetchs (Count)
board.cache_hierarchy.l1dcaches.prefetcher.prefetchers0.pfIssued        75648                       # number of hwpf issued (Count)
board.cache_hierarchy.l1dcaches.prefetcher.prefetchers0.pfUnused        11042                       # number of HardPF blocks evicted w/o reference (Count)
board.cache_hierarchy.l1dcaches.prefetcher.prefetchers0.pfUseful        11694                       # number of useful prefetch (Count)
board.cache_hierarchy.l1dcaches.prefetcher.prefetchers0.pfUsefulButMiss            0                       # number of hit on prefetch but cache block is not in an usable state (Count)
board.cache_hierarchy.l1dcaches.prefetcher.prefetchers0.accuracy     0.154584                       # accuracy of the prefetcher (Count)
board.cache_hierarchy.l1dcaches.prefetcher.prefetchers0.coverage     0.422838                       # coverage brought by this prefetcher (Count)
board.cache_hierarchy.l1dcaches.prefetcher.prefetchers0.pfHitInCache            0                       # number of prefetches hitting in cache (Count)
board.cache_hierarchy.l1dcaches.prefetcher.prefetchers0.pfHitInMSHR            0                       # number of prefetches hitting in a MSHR (Count)
board.cache_hierarchy.l1dcaches.prefetcher.prefetchers0.pfHitInWB            0                       # number of prefetches hit in the Write Buffer (Count)
board.cache_hierarchy.l1dcaches.prefetcher.prefetchers0.pfLate            0                       # number of late prefetches (hitting in cache, MSHR or WB) (Count)
board.cache_hierarchy.l1dcaches.prefetcher.prefetchers0.pfIdentified        83298                       # number of prefetch candidates identified (Count)
board.cache_hierarchy.l1dcaches.prefetcher.prefetchers0.pfBufferHit         6378                       # number of redundant prefetches already in prefetch queue (Count)
board.cache_hierarchy.l1dcaches.prefetcher.prefetchers0.pfInCache            0                       # number of redundant prefetches already in cache/mshr dropped (Count)
board.cache_hierarchy.l1dcaches.prefetcher.prefetchers0.pfRemovedDemand          592                       # number of prefetches dropped due to a demand for the same address (Count)
board.cache_hierarchy.l1dcaches.prefetcher.prefetchers0.pfRemovedFull           21                       # number of prefetches dropped due to prefetch queue size (Count)
board.cache_hierarchy.l1dcaches.prefetcher.prefetchers0.pfSpanPage         5830                       # number of prefetches that crossed the page (Count)
board.cache_hierarchy.l1dcaches.prefetcher.prefetchers0.pfUsefulSpanPage         4782                       # number of prefetches that is useful and crossed the page (Count)
board.cache_hierarchy.l1dcaches.prefetcher.prefetchers0.power_state.pwrStateResidencyTicks::UNDEFINED   3409823097                       # Cumulative time (in ticks) in various power states (Tick)
board.cache_hierarchy.l1dcaches.prefetcher.prefetchers1.demandMshrMisses        15962                       # demands not covered by prefetchs (Count)
board.cache_hierarchy.l1dcaches.prefetcher.prefetchers1.pfIssued        16057                       # number of hwpf issued (Count)
board.cache_hierarchy.l1dcaches.prefetcher.prefetchers1.pfUnused        11042                       # number of HardPF blocks evicted w/o reference (Count)
board.cache_hierarchy.l1dcaches.prefetcher.prefetchers1.pfUseful         9406                       # number of useful prefetch (Count)
board.cache_hierarchy.l1dcaches.prefetcher.prefetchers1.pfUsefulButMiss            0                       # number of hit on prefetch but cache block is not in an usable state (Count)
board.cache_hierarchy.l1dcaches.prefetcher.prefetchers1.accuracy     0.585788                       # accuracy of the prefetcher (Count)
board.cache_hierarchy.l1dcaches.prefetcher.prefetchers1.coverage     0.370782                       # coverage brought by this prefetcher (Count)
board.cache_hierarchy.l1dcaches.prefetcher.prefetchers1.pfHitInCache            0                       # number of prefetches hitting in cache (Count)
board.cache_hierarchy.l1dcaches.prefetcher.prefetchers1.pfHitInMSHR            0                       # number of prefetches hitting in a MSHR (Count)
board.cache_hierarchy.l1dcaches.prefetcher.prefetchers1.pfHitInWB            0                       # number of prefetches hit in the Write Buffer (Count)
board.cache_hierarchy.l1dcaches.prefetcher.prefetchers1.pfLate            0                       # number of late prefetches (hitting in cache, MSHR or WB) (Count)
board.cache_hierarchy.l1dcaches.prefetcher.prefetchers1.pfIdentified        73197                       # number of prefetch candidates identified (Count)
board.cache_hierarchy.l1dcaches.prefetcher.prefetchers1.pfBufferHit        10103                       # number of redundant prefetches already in prefetch queue (Count)
board.cache_hierarchy.l1dcaches.prefetcher.prefetchers1.pfInCache        36105                       # number of redundant prefetches already in cache/mshr dropped (Count)
board.cache_hierarchy.l1dcaches.prefetcher.prefetchers1.pfRemovedDemand          229                       # number of prefetches dropped due to a demand for the same address (Count)
board.cache_hierarchy.l1dcaches.prefetcher.prefetchers1.pfRemovedFull         9798                       # number of prefetches dropped due to prefetch queue size (Count)
board.cache_hierarchy.l1dcaches.prefetcher.prefetchers1.pfSpanPage            0                       # number of prefetches that crossed the page (Count)
board.cache_hierarchy.l1dcaches.prefetcher.prefetchers1.pfUsefulSpanPage            0                       # number of prefetches that is useful and crossed the page (Count)
board.cache_hierarchy.l1dcaches.prefetcher.prefetchers1.power_state.pwrStateResidencyTicks::UNDEFINED   3409823097                       # Cumulative time (in ticks) in various power states (Tick)
board.cache_hierarchy.l1dcaches.prefetcher.prefetchers2.demandMshrMisses        15962                       # demands not covered by prefetchs (Count)
board.cache_hierarchy.l1dcaches.prefetcher.prefetchers2.pfIssued        13147                       # number of hwpf issued (Count)
board.cache_hierarchy.l1dcaches.prefetcher.prefetchers2.pfUnused        11042                       # number of HardPF blocks evicted w/o reference (Count)
board.cache_hierarchy.l1dcaches.prefetcher.prefetchers2.pfUseful         9313                       # number of useful prefetch (Count)
board.cache_hierarchy.l1dcaches.prefetcher.prefetchers2.pfUsefulButMiss            0                       # number of hit on prefetch but cache block is not in an usable state (Count)
board.cache_hierarchy.l1dcaches.prefetcher.prefetchers2.accuracy     0.708375                       # accuracy of the prefetcher (Count)
board.cache_hierarchy.l1dcaches.prefetcher.prefetchers2.coverage     0.368467                       # coverage brought by this prefetcher (Count)
board.cache_hierarchy.l1dcaches.prefetcher.prefetchers2.pfHitInCache            0                       # number of prefetches hitting in cache (Count)
board.cache_hierarchy.l1dcaches.prefetcher.prefetchers2.pfHitInMSHR            0                       # number of prefetches hitting in a MSHR (Count)
board.cache_hierarchy.l1dcaches.prefetcher.prefetchers2.pfHitInWB            0                       # number of prefetches hit in the Write Buffer (Count)
board.cache_hierarchy.l1dcaches.prefetcher.prefetchers2.pfLate            0                       # number of late prefetches (hitting in cache, MSHR or WB) (Count)
board.cache_hierarchy.l1dcaches.prefetcher.prefetchers2.pfIdentified        35434                       # number of prefetch candidates identified (Count)
board.cache_hierarchy.l1dcaches.prefetcher.prefetchers2.pfBufferHit          294                       # number of redundant prefetches already in prefetch queue (Count)
board.cache_hierarchy.l1dcaches.prefetcher.prefetchers2.pfInCache        17196                       # number of redundant prefetches already in cache/mshr dropped (Count)
board.cache_hierarchy.l1dcaches.prefetcher.prefetchers2.pfRemovedDemand           31                       # number of prefetches dropped due to a demand for the same address (Count)
board.cache_hierarchy.l1dcaches.prefetcher.prefetchers2.pfRemovedFull            0                       # number of prefetches dropped due to prefetch queue size (Count)
board.cache_hierarchy.l1dcaches.prefetcher.prefetchers2.pfSpanPage         7025                       # number of prefetches that crossed the page (Count)
board.cache_hierarchy.l1dcaches.prefetcher.prefetchers2.pfUsefulSpanPage         1424                       # number of prefetches that is useful and crossed the page (Count)
board.cache_hierarchy.l1dcaches.prefetcher.prefetchers2.power_state.pwrStateResidencyTicks::UNDEFINED   3409823097                       # Cumulative time (in ticks) in various power states (Tick)
board.cache_hierarchy.l1dcaches.tags.tagsInUse  1016.306131                       # Average ticks per tags in use ((Tick/Count))
board.cache_hierarchy.l1dcaches.tags.totalRefs      4941349                       # Total number of references to valid blocks. (Count)
board.cache_hierarchy.l1dcaches.tags.sampledRefs        58400                       # Sample count of references to valid blocks. (Count)
board.cache_hierarchy.l1dcaches.tags.avgRefs    84.612140                       # Average number of references to valid blocks. ((Count/Count))
board.cache_hierarchy.l1dcaches.tags.warmupTick       158841                       # The tick when the warmup percentage was hit. (Tick)
board.cache_hierarchy.l1dcaches.tags.occupancies::cache_hierarchy.l1dcaches.prefetcher.prefetchers0   292.408544                       # Average occupied blocks per tick, per requestor ((Count/Tick))
board.cache_hierarchy.l1dcaches.tags.occupancies::cache_hierarchy.l1dcaches.prefetcher.prefetchers1   132.819352                       # Average occupied blocks per tick, per requestor ((Count/Tick))
board.cache_hierarchy.l1dcaches.tags.occupancies::cache_hierarchy.l1dcaches.prefetcher.prefetchers2   373.563789                       # Average occupied blocks per tick, per requestor ((Count/Tick))
board.cache_hierarchy.l1dcaches.tags.occupancies::processor.cores.core.data   217.514447                       # Average occupied blocks per tick, per requestor ((Count/Tick))
board.cache_hierarchy.l1dcaches.tags.avgOccs::cache_hierarchy.l1dcaches.prefetcher.prefetchers0     0.285555                       # Average percentage of cache occupancy ((Ratio/Tick))
board.cache_hierarchy.l1dcaches.tags.avgOccs::cache_hierarchy.l1dcaches.prefetcher.prefetchers1     0.129706                       # Average percentage of cache occupancy ((Ratio/Tick))
board.cache_hierarchy.l1dcaches.tags.avgOccs::cache_hierarchy.l1dcaches.prefetcher.prefetchers2     0.364808                       # Average percentage of cache occupancy ((Ratio/Tick))
board.cache_hierarchy.l1dcaches.tags.avgOccs::processor.cores.core.data     0.212416                       # Average percentage of cache occupancy ((Ratio/Tick))
board.cache_hierarchy.l1dcaches.tags.avgOccs::total     0.992486                       # Average percentage of cache occupancy ((Ratio/Tick))
board.cache_hierarchy.l1dcaches.tags.occupanciesTaskId::1022          499                       # Occupied blocks per task id (Count)
board.cache_hierarchy.l1dcaches.tags.occupanciesTaskId::1024          525                       # Occupied blocks per task id (Count)
board.cache_hierarchy.l1dcaches.tags.ageTaskId_1022::0          128                       # Occupied blocks per task id, per block age (Count)
board.cache_hierarchy.l1dcaches.tags.ageTaskId_1022::1          306                       # Occupied blocks per task id, per block age (Count)
board.cache_hierarchy.l1dcaches.tags.ageTaskId_1022::2           64                       # Occupied blocks per task id, per block age (Count)
board.cache_hierarchy.l1dcaches.tags.ageTaskId_1022::3            1                       # Occupied blocks per task id, per block age (Count)
board.cache_hierarchy.l1dcaches.tags.ageTaskId_1024::0          145                       # Occupied blocks per task id, per block age (Count)
board.cache_hierarchy.l1dcaches.tags.ageTaskId_1024::1          354                       # Occupied blocks per task id, per block age (Count)
board.cache_hierarchy.l1dcaches.tags.ageTaskId_1024::2           25                       # Occupied blocks per task id, per block age (Count)
board.cache_hierarchy.l1dcaches.tags.ageTaskId_1024::3            1                       # Occupied blocks per task id, per block age (Count)
board.cache_hierarchy.l1dcaches.tags.ratioOccsTaskId::1022     0.487305                       # Ratio of occupied blocks and all blocks, per task id (Ratio)
board.cache_hierarchy.l1dcaches.tags.ratioOccsTaskId::1024     0.512695                       # Ratio of occupied blocks and all blocks, per task id (Ratio)
board.cache_hierarchy.l1dcaches.tags.tagAccesses     39524384                       # Number of tag accesses (Count)
board.cache_hierarchy.l1dcaches.tags.dataAccesses     39524384                       # Number of data accesses (Count)
board.cache_hierarchy.l1dcaches.tags.power_state.pwrStateResidencyTicks::UNDEFINED   3409823097                       # Cumulative time (in ticks) in various power states (Tick)
board.cache_hierarchy.l1icaches.demandHits::processor.cores.core.inst      2777190                       # number of demand (read+write) hits (Count)
board.cache_hierarchy.l1icaches.demandHits::total      2777190                       # number of demand (read+write) hits (Count)
board.cache_hierarchy.l1icaches.overallHits::processor.cores.core.inst      2777190                       # number of overall hits (Count)
board.cache_hierarchy.l1icaches.overallHits::total      2777190                       # number of overall hits (Count)
board.cache_hierarchy.l1icaches.demandMisses::processor.cores.core.inst         1207                       # number of demand (read+write) misses (Count)
board.cache_hierarchy.l1icaches.demandMisses::total         1207                       # number of demand (read+write) misses (Count)
board.cache_hierarchy.l1icaches.overallMisses::processor.cores.core.inst         1207                       # number of overall misses (Count)
board.cache_hierarchy.l1icaches.overallMisses::total         1207                       # number of overall misses (Count)
board.cache_hierarchy.l1icaches.demandMissLatency::processor.cores.core.inst     40434191                       # number of demand (read+write) miss ticks (Tick)
board.cache_hierarchy.l1icaches.demandMissLatency::total     40434191                       # number of demand (read+write) miss ticks (Tick)
board.cache_hierarchy.l1icaches.overallMissLatency::processor.cores.core.inst     40434191                       # number of overall miss ticks (Tick)
board.cache_hierarchy.l1icaches.overallMissLatency::total     40434191                       # number of overall miss ticks (Tick)
board.cache_hierarchy.l1icaches.demandAccesses::processor.cores.core.inst      2778397                       # number of demand (read+write) accesses (Count)
board.cache_hierarchy.l1icaches.demandAccesses::total      2778397                       # number of demand (read+write) accesses (Count)
board.cache_hierarchy.l1icaches.overallAccesses::processor.cores.core.inst      2778397                       # number of overall (read+write) accesses (Count)
board.cache_hierarchy.l1icaches.overallAccesses::total      2778397                       # number of overall (read+write) accesses (Count)
board.cache_hierarchy.l1icaches.demandMissRate::processor.cores.core.inst     0.000434                       # miss rate for demand accesses (Ratio)
board.cache_hierarchy.l1icaches.demandMissRate::total     0.000434                       # miss rate for demand accesses (Ratio)
board.cache_hierarchy.l1icaches.overallMissRate::processor.cores.core.inst     0.000434                       # miss rate for overall accesses (Ratio)
board.cache_hierarchy.l1icaches.overallMissRate::total     0.000434                       # miss rate for overall accesses (Ratio)
board.cache_hierarchy.l1icaches.demandAvgMissLatency::processor.cores.core.inst 33499.743993                       # average overall miss latency in ticks ((Tick/Count))
board.cache_hierarchy.l1icaches.demandAvgMissLatency::total 33499.743993                       # average overall miss latency in ticks ((Tick/Count))
board.cache_hierarchy.l1icaches.overallAvgMissLatency::processor.cores.core.inst 33499.743993                       # average overall miss latency ((Tick/Count))
board.cache_hierarchy.l1icaches.overallAvgMissLatency::total 33499.743993                       # average overall miss latency ((Tick/Count))
board.cache_hierarchy.l1icaches.blockedCycles::no_mshrs          470                       # number of cycles access was blocked (Cycle)
board.cache_hierarchy.l1icaches.blockedCycles::no_wbuffers            0                       # number of cycles access was blocked (Cycle)
board.cache_hierarchy.l1icaches.blockedCycles::no_targets          145                       # number of cycles access was blocked (Cycle)
board.cache_hierarchy.l1icaches.blockedCauses::no_mshrs           17                       # number of times access was blocked (Count)
board.cache_hierarchy.l1icaches.blockedCauses::no_wbuffers            0                       # number of times access was blocked (Count)
board.cache_hierarchy.l1icaches.blockedCauses::no_targets            1                       # number of times access was blocked (Count)
board.cache_hierarchy.l1icaches.avgBlocked::no_mshrs    27.647059                       # average number of cycles each access was blocked ((Cycle/Count))
board.cache_hierarchy.l1icaches.avgBlocked::no_wbuffers          nan                       # average number of cycles each access was blocked ((Cycle/Count))
board.cache_hierarchy.l1icaches.avgBlocked::no_targets          145                       # average number of cycles each access was blocked ((Cycle/Count))
board.cache_hierarchy.l1icaches.writebacks::writebacks         4391                       # number of writebacks (Count)
board.cache_hierarchy.l1icaches.writebacks::total         4391                       # number of writebacks (Count)
board.cache_hierarchy.l1icaches.demandMshrHits::processor.cores.core.inst          796                       # number of demand (read+write) MSHR hits (Count)
board.cache_hierarchy.l1icaches.demandMshrHits::total          796                       # number of demand (read+write) MSHR hits (Count)
board.cache_hierarchy.l1icaches.overallMshrHits::processor.cores.core.inst          796                       # number of overall MSHR hits (Count)
board.cache_hierarchy.l1icaches.overallMshrHits::total          796                       # number of overall MSHR hits (Count)
board.cache_hierarchy.l1icaches.demandMshrMisses::processor.cores.core.inst          411                       # number of demand (read+write) MSHR misses (Count)
board.cache_hierarchy.l1icaches.demandMshrMisses::total          411                       # number of demand (read+write) MSHR misses (Count)
board.cache_hierarchy.l1icaches.overallMshrMisses::processor.cores.core.inst          411                       # number of overall MSHR misses (Count)
board.cache_hierarchy.l1icaches.overallMshrMisses::cache_hierarchy.l1icaches.prefetcher.prefetchers0         4443                       # number of overall MSHR misses (Count)
board.cache_hierarchy.l1icaches.overallMshrMisses::cache_hierarchy.l1icaches.prefetcher.prefetchers1          578                       # number of overall MSHR misses (Count)
board.cache_hierarchy.l1icaches.overallMshrMisses::total         5432                       # number of overall MSHR misses (Count)
board.cache_hierarchy.l1icaches.demandMshrMissLatency::processor.cores.core.inst     24252056                       # number of demand (read+write) MSHR miss ticks (Tick)
board.cache_hierarchy.l1icaches.demandMshrMissLatency::total     24252056                       # number of demand (read+write) MSHR miss ticks (Tick)
board.cache_hierarchy.l1icaches.overallMshrMissLatency::processor.cores.core.inst     24252056                       # number of overall MSHR miss ticks (Tick)
board.cache_hierarchy.l1icaches.overallMshrMissLatency::cache_hierarchy.l1icaches.prefetcher.prefetchers0    285794124                       # number of overall MSHR miss ticks (Tick)
board.cache_hierarchy.l1icaches.overallMshrMissLatency::cache_hierarchy.l1icaches.prefetcher.prefetchers1     32680775                       # number of overall MSHR miss ticks (Tick)
board.cache_hierarchy.l1icaches.overallMshrMissLatency::total    342726955                       # number of overall MSHR miss ticks (Tick)
board.cache_hierarchy.l1icaches.demandMshrMissRate::processor.cores.core.inst     0.000148                       # mshr miss ratio for demand accesses (Ratio)
board.cache_hierarchy.l1icaches.demandMshrMissRate::total     0.000148                       # mshr miss ratio for demand accesses (Ratio)
board.cache_hierarchy.l1icaches.overallMshrMissRate::processor.cores.core.inst     0.000148                       # mshr miss ratio for overall accesses (Ratio)
board.cache_hierarchy.l1icaches.overallMshrMissRate::cache_hierarchy.l1icaches.prefetcher.prefetchers0          inf                       # mshr miss ratio for overall accesses (Ratio)
board.cache_hierarchy.l1icaches.overallMshrMissRate::cache_hierarchy.l1icaches.prefetcher.prefetchers1          inf                       # mshr miss ratio for overall accesses (Ratio)
board.cache_hierarchy.l1icaches.overallMshrMissRate::total     0.001955                       # mshr miss ratio for overall accesses (Ratio)
board.cache_hierarchy.l1icaches.demandAvgMshrMissLatency::processor.cores.core.inst 59007.435523                       # average overall mshr miss latency ((Tick/Count))
board.cache_hierarchy.l1icaches.demandAvgMshrMissLatency::total 59007.435523                       # average overall mshr miss latency ((Tick/Count))
board.cache_hierarchy.l1icaches.overallAvgMshrMissLatency::processor.cores.core.inst 59007.435523                       # average overall mshr miss latency ((Tick/Count))
board.cache_hierarchy.l1icaches.overallAvgMshrMissLatency::cache_hierarchy.l1icaches.prefetcher.prefetchers0 64324.583390                       # average overall mshr miss latency ((Tick/Count))
board.cache_hierarchy.l1icaches.overallAvgMshrMissLatency::cache_hierarchy.l1icaches.prefetcher.prefetchers1 56541.133218                       # average overall mshr miss latency ((Tick/Count))
board.cache_hierarchy.l1icaches.overallAvgMshrMissLatency::total 63094.063881                       # average overall mshr miss latency ((Tick/Count))
board.cache_hierarchy.l1icaches.replacements         4391                       # number of replacements (Count)
board.cache_hierarchy.l1icaches.HardPFReq.mshrMisses::cache_hierarchy.l1icaches.prefetcher.prefetchers0         4443                       # number of HardPFReq MSHR misses (Count)
board.cache_hierarchy.l1icaches.HardPFReq.mshrMisses::cache_hierarchy.l1icaches.prefetcher.prefetchers1          578                       # number of HardPFReq MSHR misses (Count)
board.cache_hierarchy.l1icaches.HardPFReq.mshrMisses::total         5021                       # number of HardPFReq MSHR misses (Count)
board.cache_hierarchy.l1icaches.HardPFReq.mshrMissLatency::cache_hierarchy.l1icaches.prefetcher.prefetchers0    285794124                       # number of HardPFReq MSHR miss ticks (Tick)
board.cache_hierarchy.l1icaches.HardPFReq.mshrMissLatency::cache_hierarchy.l1icaches.prefetcher.prefetchers1     32680775                       # number of HardPFReq MSHR miss ticks (Tick)
board.cache_hierarchy.l1icaches.HardPFReq.mshrMissLatency::total    318474899                       # number of HardPFReq MSHR miss ticks (Tick)
board.cache_hierarchy.l1icaches.HardPFReq.mshrMissRate::cache_hierarchy.l1icaches.prefetcher.prefetchers0          inf                       # mshr miss rate for HardPFReq accesses (Ratio)
board.cache_hierarchy.l1icaches.HardPFReq.mshrMissRate::cache_hierarchy.l1icaches.prefetcher.prefetchers1          inf                       # mshr miss rate for HardPFReq accesses (Ratio)
board.cache_hierarchy.l1icaches.HardPFReq.mshrMissRate::total          inf                       # mshr miss rate for HardPFReq accesses (Ratio)
board.cache_hierarchy.l1icaches.HardPFReq.avgMshrMissLatency::cache_hierarchy.l1icaches.prefetcher.prefetchers0 64324.583390                       # average HardPFReq mshr miss latency ((Tick/Count))
board.cache_hierarchy.l1icaches.HardPFReq.avgMshrMissLatency::cache_hierarchy.l1icaches.prefetcher.prefetchers1 56541.133218                       # average HardPFReq mshr miss latency ((Tick/Count))
board.cache_hierarchy.l1icaches.HardPFReq.avgMshrMissLatency::total 63428.579765                       # average HardPFReq mshr miss latency ((Tick/Count))
board.cache_hierarchy.l1icaches.ReadReq.hits::processor.cores.core.inst      2777190                       # number of ReadReq hits (Count)
board.cache_hierarchy.l1icaches.ReadReq.hits::total      2777190                       # number of ReadReq hits (Count)
board.cache_hierarchy.l1icaches.ReadReq.misses::processor.cores.core.inst         1207                       # number of ReadReq misses (Count)
board.cache_hierarchy.l1icaches.ReadReq.misses::total         1207                       # number of ReadReq misses (Count)
board.cache_hierarchy.l1icaches.ReadReq.missLatency::processor.cores.core.inst     40434191                       # number of ReadReq miss ticks (Tick)
board.cache_hierarchy.l1icaches.ReadReq.missLatency::total     40434191                       # number of ReadReq miss ticks (Tick)
board.cache_hierarchy.l1icaches.ReadReq.accesses::processor.cores.core.inst      2778397                       # number of ReadReq accesses(hits+misses) (Count)
board.cache_hierarchy.l1icaches.ReadReq.accesses::total      2778397                       # number of ReadReq accesses(hits+misses) (Count)
board.cache_hierarchy.l1icaches.ReadReq.missRate::processor.cores.core.inst     0.000434                       # miss rate for ReadReq accesses (Ratio)
board.cache_hierarchy.l1icaches.ReadReq.missRate::total     0.000434                       # miss rate for ReadReq accesses (Ratio)
board.cache_hierarchy.l1icaches.ReadReq.avgMissLatency::processor.cores.core.inst 33499.743993                       # average ReadReq miss latency ((Tick/Count))
board.cache_hierarchy.l1icaches.ReadReq.avgMissLatency::total 33499.743993                       # average ReadReq miss latency ((Tick/Count))
board.cache_hierarchy.l1icaches.ReadReq.mshrHits::processor.cores.core.inst          796                       # number of ReadReq MSHR hits (Count)
board.cache_hierarchy.l1icaches.ReadReq.mshrHits::total          796                       # number of ReadReq MSHR hits (Count)
board.cache_hierarchy.l1icaches.ReadReq.mshrMisses::processor.cores.core.inst          411                       # number of ReadReq MSHR misses (Count)
board.cache_hierarchy.l1icaches.ReadReq.mshrMisses::total          411                       # number of ReadReq MSHR misses (Count)
board.cache_hierarchy.l1icaches.ReadReq.mshrMissLatency::processor.cores.core.inst     24252056                       # number of ReadReq MSHR miss ticks (Tick)
board.cache_hierarchy.l1icaches.ReadReq.mshrMissLatency::total     24252056                       # number of ReadReq MSHR miss ticks (Tick)
board.cache_hierarchy.l1icaches.ReadReq.mshrMissRate::processor.cores.core.inst     0.000148                       # mshr miss rate for ReadReq accesses (Ratio)
board.cache_hierarchy.l1icaches.ReadReq.mshrMissRate::total     0.000148                       # mshr miss rate for ReadReq accesses (Ratio)
board.cache_hierarchy.l1icaches.ReadReq.avgMshrMissLatency::processor.cores.core.inst 59007.435523                       # average ReadReq mshr miss latency ((Tick/Count))
board.cache_hierarchy.l1icaches.ReadReq.avgMshrMissLatency::total 59007.435523                       # average ReadReq mshr miss latency ((Tick/Count))
board.cache_hierarchy.l1icaches.power_state.pwrStateResidencyTicks::UNDEFINED   3409823097                       # Cumulative time (in ticks) in various power states (Tick)
board.cache_hierarchy.l1icaches.prefetcher.demandMshrMisses            0                       # demands not covered by prefetchs (Count)
board.cache_hierarchy.l1icaches.prefetcher.pfIssued         7283                       # number of hwpf issued (Count)
board.cache_hierarchy.l1icaches.prefetcher.pfUseful            0                       # number of useful prefetch (Count)
board.cache_hierarchy.l1icaches.prefetcher.pfUsefulButMiss            0                       # number of hit on prefetch but cache block is not in an usable state (Count)
board.cache_hierarchy.l1icaches.prefetcher.accuracy            0                       # accuracy of the prefetcher (Count)
board.cache_hierarchy.l1icaches.prefetcher.coverage          nan                       # coverage brought by this prefetcher (Count)
board.cache_hierarchy.l1icaches.prefetcher.pfHitInCache          593                       # number of prefetches hitting in cache (Count)
board.cache_hierarchy.l1icaches.prefetcher.pfHitInMSHR         1669                       # number of prefetches hitting in a MSHR (Count)
board.cache_hierarchy.l1icaches.prefetcher.pfHitInWB            0                       # number of prefetches hit in the Write Buffer (Count)
board.cache_hierarchy.l1icaches.prefetcher.pfLate         2262                       # number of late prefetches (hitting in cache, MSHR or WB) (Count)
board.cache_hierarchy.l1icaches.prefetcher.power_state.pwrStateResidencyTicks::UNDEFINED   3409823097                       # Cumulative time (in ticks) in various power states (Tick)
board.cache_hierarchy.l1icaches.prefetcher.prefetchers0.demandMshrMisses          411                       # demands not covered by prefetchs (Count)
board.cache_hierarchy.l1icaches.prefetcher.prefetchers0.pfIssued         5069                       # number of hwpf issued (Count)
board.cache_hierarchy.l1icaches.prefetcher.prefetchers0.pfUnused         2801                       # number of HardPF blocks evicted w/o reference (Count)
board.cache_hierarchy.l1icaches.prefetcher.prefetchers0.pfUseful          993                       # number of useful prefetch (Count)
board.cache_hierarchy.l1icaches.prefetcher.prefetchers0.pfUsefulButMiss            0                       # number of hit on prefetch but cache block is not in an usable state (Count)
board.cache_hierarchy.l1icaches.prefetcher.prefetchers0.accuracy     0.195897                       # accuracy of the prefetcher (Count)
board.cache_hierarchy.l1icaches.prefetcher.prefetchers0.coverage     0.707265                       # coverage brought by this prefetcher (Count)
board.cache_hierarchy.l1icaches.prefetcher.prefetchers0.pfHitInCache            0                       # number of prefetches hitting in cache (Count)
board.cache_hierarchy.l1icaches.prefetcher.prefetchers0.pfHitInMSHR            0                       # number of prefetches hitting in a MSHR (Count)
board.cache_hierarchy.l1icaches.prefetcher.prefetchers0.pfHitInWB            0                       # number of prefetches hit in the Write Buffer (Count)
board.cache_hierarchy.l1icaches.prefetcher.prefetchers0.pfLate            0                       # number of late prefetches (hitting in cache, MSHR or WB) (Count)
board.cache_hierarchy.l1icaches.prefetcher.prefetchers0.fdipInsertions            0                       # Number of notifications from an insertion in the FTQ (Count)
board.cache_hierarchy.l1icaches.prefetcher.prefetchers0.pfIdentified     11854035                       # Number of prefetches identified. (Count)
board.cache_hierarchy.l1icaches.prefetcher.prefetchers0.pfSquashed        19920                       # Number of prefetches squashed. (Count)
board.cache_hierarchy.l1icaches.prefetcher.prefetchers0.pfInPFQ        21677                       # Number of prefetches hit in the prefetch queue (Count)
board.cache_hierarchy.l1icaches.prefetcher.prefetchers0.pfInTQ            0                       # Number of prefetches hit in the translation queue (Count)
board.cache_hierarchy.l1icaches.prefetcher.prefetchers0.pfInCache     11827023                       # Number of prefetches hit in in cache (Count)
board.cache_hierarchy.l1icaches.prefetcher.prefetchers0.pfInCachePrefetched            0                       # Number of prefetches hit in cache but prefetched (Count)
board.cache_hierarchy.l1icaches.prefetcher.prefetchers0.pfPacketsCreated        24996                       # Number of prefetch packets created (Count)
board.cache_hierarchy.l1icaches.prefetcher.prefetchers0.pfCandidatesAdded        24996                       # Number of prefetch candidates added to the prefetch queue (Count)
board.cache_hierarchy.l1icaches.prefetcher.prefetchers0.translationFail         2016                       # Number of prefetches that failed translation (Count)
board.cache_hierarchy.l1icaches.prefetcher.prefetchers0.translationSuccess     11852019                       # Number of prefetches that succeeded translation (Count)
board.cache_hierarchy.l1icaches.prefetcher.prefetchers0.pfqSizeDistAtNotify::samples     11854035                       # Distribution of the prefetch queue size at the time of notification of a new fetch target (Count)
board.cache_hierarchy.l1icaches.prefetcher.prefetchers0.pfqSizeDistAtNotify::mean     0.030290                       # Distribution of the prefetch queue size at the time of notification of a new fetch target (Count)
board.cache_hierarchy.l1icaches.prefetcher.prefetchers0.pfqSizeDistAtNotify::stdev     0.720969                       # Distribution of the prefetch queue size at the time of notification of a new fetch target (Count)
board.cache_hierarchy.l1icaches.prefetcher.prefetchers0.pfqSizeDistAtNotify::underflows            0      0.00%      0.00% # Distribution of the prefetch queue size at the time of notification of a new fetch target (Count)
board.cache_hierarchy.l1icaches.prefetcher.prefetchers0.pfqSizeDistAtNotify::0-3     11828968     99.79%     99.79% # Distribution of the prefetch queue size at the time of notification of a new fetch target (Count)
board.cache_hierarchy.l1icaches.prefetcher.prefetchers0.pfqSizeDistAtNotify::4-7         6383      0.05%     99.84% # Distribution of the prefetch queue size at the time of notification of a new fetch target (Count)
board.cache_hierarchy.l1icaches.prefetcher.prefetchers0.pfqSizeDistAtNotify::8-11         5456      0.05%     99.89% # Distribution of the prefetch queue size at the time of notification of a new fetch target (Count)
board.cache_hierarchy.l1icaches.prefetcher.prefetchers0.pfqSizeDistAtNotify::12-15         4123      0.03%     99.92% # Distribution of the prefetch queue size at the time of notification of a new fetch target (Count)
board.cache_hierarchy.l1icaches.prefetcher.prefetchers0.pfqSizeDistAtNotify::16-19         3338      0.03%     99.95% # Distribution of the prefetch queue size at the time of notification of a new fetch target (Count)
board.cache_hierarchy.l1icaches.prefetcher.prefetchers0.pfqSizeDistAtNotify::20-23         2494      0.02%     99.97% # Distribution of the prefetch queue size at the time of notification of a new fetch target (Count)
board.cache_hierarchy.l1icaches.prefetcher.prefetchers0.pfqSizeDistAtNotify::24-27         1783      0.02%     99.99% # Distribution of the prefetch queue size at the time of notification of a new fetch target (Count)
board.cache_hierarchy.l1icaches.prefetcher.prefetchers0.pfqSizeDistAtNotify::28-31         1005      0.01%    100.00% # Distribution of the prefetch queue size at the time of notification of a new fetch target (Count)
board.cache_hierarchy.l1icaches.prefetcher.prefetchers0.pfqSizeDistAtNotify::32-35          485      0.00%    100.00% # Distribution of the prefetch queue size at the time of notification of a new fetch target (Count)
board.cache_hierarchy.l1icaches.prefetcher.prefetchers0.pfqSizeDistAtNotify::36-39            0      0.00%    100.00% # Distribution of the prefetch queue size at the time of notification of a new fetch target (Count)
board.cache_hierarchy.l1icaches.prefetcher.prefetchers0.pfqSizeDistAtNotify::40-43            0      0.00%    100.00% # Distribution of the prefetch queue size at the time of notification of a new fetch target (Count)
board.cache_hierarchy.l1icaches.prefetcher.prefetchers0.pfqSizeDistAtNotify::44-47            0      0.00%    100.00% # Distribution of the prefetch queue size at the time of notification of a new fetch target (Count)
board.cache_hierarchy.l1icaches.prefetcher.prefetchers0.pfqSizeDistAtNotify::48-51            0      0.00%    100.00% # Distribution of the prefetch queue size at the time of notification of a new fetch target (Count)
board.cache_hierarchy.l1icaches.prefetcher.prefetchers0.pfqSizeDistAtNotify::52-55            0      0.00%    100.00% # Distribution of the prefetch queue size at the time of notification of a new fetch target (Count)
board.cache_hierarchy.l1icaches.prefetcher.prefetchers0.pfqSizeDistAtNotify::56-59            0      0.00%    100.00% # Distribution of the prefetch queue size at the time of notification of a new fetch target (Count)
board.cache_hierarchy.l1icaches.prefetcher.prefetchers0.pfqSizeDistAtNotify::60-63            0      0.00%    100.00% # Distribution of the prefetch queue size at the time of notification of a new fetch target (Count)
board.cache_hierarchy.l1icaches.prefetcher.prefetchers0.pfqSizeDistAtNotify::64            0      0.00%    100.00% # Distribution of the prefetch queue size at the time of notification of a new fetch target (Count)
board.cache_hierarchy.l1icaches.prefetcher.prefetchers0.pfqSizeDistAtNotify::overflows            0      0.00%    100.00% # Distribution of the prefetch queue size at the time of notification of a new fetch target (Count)
board.cache_hierarchy.l1icaches.prefetcher.prefetchers0.pfqSizeDistAtNotify::min_value            0                       # Distribution of the prefetch queue size at the time of notification of a new fetch target (Count)
board.cache_hierarchy.l1icaches.prefetcher.prefetchers0.pfqSizeDistAtNotify::max_value           35                       # Distribution of the prefetch queue size at the time of notification of a new fetch target (Count)
board.cache_hierarchy.l1icaches.prefetcher.prefetchers0.pfqSizeDistAtNotify::total     11854035                       # Distribution of the prefetch queue size at the time of notification of a new fetch target (Count)
board.cache_hierarchy.l1icaches.prefetcher.prefetchers0.tqSizeDistAtNotify::samples     11854035                       # Distribution of the translation queue size at the time of notification of a new fetch target (Count)
board.cache_hierarchy.l1icaches.prefetcher.prefetchers0.tqSizeDistAtNotify::mean            0                       # Distribution of the translation queue size at the time of notification of a new fetch target (Count)
board.cache_hierarchy.l1icaches.prefetcher.prefetchers0.tqSizeDistAtNotify::stdev            0                       # Distribution of the translation queue size at the time of notification of a new fetch target (Count)
board.cache_hierarchy.l1icaches.prefetcher.prefetchers0.tqSizeDistAtNotify::underflows            0      0.00%      0.00% # Distribution of the translation queue size at the time of notification of a new fetch target (Count)
board.cache_hierarchy.l1icaches.prefetcher.prefetchers0.tqSizeDistAtNotify::0-3     11854035    100.00%    100.00% # Distribution of the translation queue size at the time of notification of a new fetch target (Count)
board.cache_hierarchy.l1icaches.prefetcher.prefetchers0.tqSizeDistAtNotify::4-7            0      0.00%    100.00% # Distribution of the translation queue size at the time of notification of a new fetch target (Count)
board.cache_hierarchy.l1icaches.prefetcher.prefetchers0.tqSizeDistAtNotify::8-11            0      0.00%    100.00% # Distribution of the translation queue size at the time of notification of a new fetch target (Count)
board.cache_hierarchy.l1icaches.prefetcher.prefetchers0.tqSizeDistAtNotify::12-15            0      0.00%    100.00% # Distribution of the translation queue size at the time of notification of a new fetch target (Count)
board.cache_hierarchy.l1icaches.prefetcher.prefetchers0.tqSizeDistAtNotify::16-19            0      0.00%    100.00% # Distribution of the translation queue size at the time of notification of a new fetch target (Count)
board.cache_hierarchy.l1icaches.prefetcher.prefetchers0.tqSizeDistAtNotify::20-23            0      0.00%    100.00% # Distribution of the translation queue size at the time of notification of a new fetch target (Count)
board.cache_hierarchy.l1icaches.prefetcher.prefetchers0.tqSizeDistAtNotify::24-27            0      0.00%    100.00% # Distribution of the translation queue size at the time of notification of a new fetch target (Count)
board.cache_hierarchy.l1icaches.prefetcher.prefetchers0.tqSizeDistAtNotify::28-31            0      0.00%    100.00% # Distribution of the translation queue size at the time of notification of a new fetch target (Count)
board.cache_hierarchy.l1icaches.prefetcher.prefetchers0.tqSizeDistAtNotify::32-35            0      0.00%    100.00% # Distribution of the translation queue size at the time of notification of a new fetch target (Count)
board.cache_hierarchy.l1icaches.prefetcher.prefetchers0.tqSizeDistAtNotify::36-39            0      0.00%    100.00% # Distribution of the translation queue size at the time of notification of a new fetch target (Count)
board.cache_hierarchy.l1icaches.prefetcher.prefetchers0.tqSizeDistAtNotify::40-43            0      0.00%    100.00% # Distribution of the translation queue size at the time of notification of a new fetch target (Count)
board.cache_hierarchy.l1icaches.prefetcher.prefetchers0.tqSizeDistAtNotify::44-47            0      0.00%    100.00% # Distribution of the translation queue size at the time of notification of a new fetch target (Count)
board.cache_hierarchy.l1icaches.prefetcher.prefetchers0.tqSizeDistAtNotify::48-51            0      0.00%    100.00% # Distribution of the translation queue size at the time of notification of a new fetch target (Count)
board.cache_hierarchy.l1icaches.prefetcher.prefetchers0.tqSizeDistAtNotify::52-55            0      0.00%    100.00% # Distribution of the translation queue size at the time of notification of a new fetch target (Count)
board.cache_hierarchy.l1icaches.prefetcher.prefetchers0.tqSizeDistAtNotify::56-59            0      0.00%    100.00% # Distribution of the translation queue size at the time of notification of a new fetch target (Count)
board.cache_hierarchy.l1icaches.prefetcher.prefetchers0.tqSizeDistAtNotify::60-63            0      0.00%    100.00% # Distribution of the translation queue size at the time of notification of a new fetch target (Count)
board.cache_hierarchy.l1icaches.prefetcher.prefetchers0.tqSizeDistAtNotify::64            0      0.00%    100.00% # Distribution of the translation queue size at the time of notification of a new fetch target (Count)
board.cache_hierarchy.l1icaches.prefetcher.prefetchers0.tqSizeDistAtNotify::overflows            0      0.00%    100.00% # Distribution of the translation queue size at the time of notification of a new fetch target (Count)
board.cache_hierarchy.l1icaches.prefetcher.prefetchers0.tqSizeDistAtNotify::min_value            0                       # Distribution of the translation queue size at the time of notification of a new fetch target (Count)
board.cache_hierarchy.l1icaches.prefetcher.prefetchers0.tqSizeDistAtNotify::max_value            0                       # Distribution of the translation queue size at the time of notification of a new fetch target (Count)
board.cache_hierarchy.l1icaches.prefetcher.prefetchers0.tqSizeDistAtNotify::total     11854035                       # Distribution of the translation queue size at the time of notification of a new fetch target (Count)
board.cache_hierarchy.l1icaches.prefetcher.prefetchers0.pfqInserts        24996                       # Number of insertions into the prefetch candidate queue (Count)
board.cache_hierarchy.l1icaches.prefetcher.prefetchers0.pfqPops         5069                       # Number of uses into the prefetch candidate queue (Count)
board.cache_hierarchy.l1icaches.prefetcher.prefetchers0.pfqDrops            0                       # Number of drops into the prefetch candidate queue (Count)
board.cache_hierarchy.l1icaches.prefetcher.prefetchers0.tqInserts     11854035                       # Number of insertions into the prefetch translation queue (Count)
board.cache_hierarchy.l1icaches.prefetcher.prefetchers0.tqPops     11854035                       # Number of uses into the prefetch translation queue (Count)
board.cache_hierarchy.l1icaches.prefetcher.prefetchers0.tqDrops            0                       # Number of drops into the prefetch translation queue (Count)
board.cache_hierarchy.l1icaches.prefetcher.prefetchers0.power_state.pwrStateResidencyTicks::UNDEFINED   3409823097                       # Cumulative time (in ticks) in various power states (Tick)
board.cache_hierarchy.l1icaches.prefetcher.prefetchers1.demandMshrMisses          411                       # demands not covered by prefetchs (Count)
board.cache_hierarchy.l1icaches.prefetcher.prefetchers1.pfIssued         2214                       # number of hwpf issued (Count)
board.cache_hierarchy.l1icaches.prefetcher.prefetchers1.pfUnused         2801                       # number of HardPF blocks evicted w/o reference (Count)
board.cache_hierarchy.l1icaches.prefetcher.prefetchers1.pfUseful          253                       # number of useful prefetch (Count)
board.cache_hierarchy.l1icaches.prefetcher.prefetchers1.pfUsefulButMiss            0                       # number of hit on prefetch but cache block is not in an usable state (Count)
board.cache_hierarchy.l1icaches.prefetcher.prefetchers1.accuracy     0.114273                       # accuracy of the prefetcher (Count)
board.cache_hierarchy.l1icaches.prefetcher.prefetchers1.coverage     0.381024                       # coverage brought by this prefetcher (Count)
board.cache_hierarchy.l1icaches.prefetcher.prefetchers1.pfHitInCache            0                       # number of prefetches hitting in cache (Count)
board.cache_hierarchy.l1icaches.prefetcher.prefetchers1.pfHitInMSHR            0                       # number of prefetches hitting in a MSHR (Count)
[...]
board.processor.cores.core.lsq0.loadToUse::90-99          188      0.01%     99.90% # Distribution of cycle latency between the first time a load is issued and its completion (Cycle)
board.processor.cores.core.lsq0.loadToUse::100-109          102      0.00%     99.90% # Distribution of cycle latency between the first time a load is issued and its completion (Cycle)
board.processor.cores.core.lsq0.loadToUse::110-119          164      0.01%     99.91% # Distribution of cycle latency between the first time a load is issued and its completion (Cycle)
board.processor.cores.core.lsq0.loadToUse::120-129          198      0.01%     99.92% # Distribution of cycle latency between the first time a load is issued and its completion (Cycle)
board.processor.cores.core.lsq0.loadToUse::130-139          196      0.01%     99.92% # Distribution of cycle latency between the first time a load is issued and its completion (Cycle)
board.processor.cores.core.lsq0.loadToUse::140-149          178      0.01%     99.93% # Distribution of cycle latency between the first time a load is issued and its completion (Cycle)
board.processor.cores.core.lsq0.loadToUse::150-159          362      0.01%     99.94% # Distribution of cycle latency between the first time a load is issued and its completion (Cycle)
board.processor.cores.core.lsq0.loadToUse::160-169          602      0.02%     99.96% # Distribution of cycle latency between the first time a load is issued and its completion (Cycle)
board.processor.cores.core.lsq0.loadToUse::170-179          110      0.00%     99.96% # Distribution of cycle latency between the first time a load is issued and its completion (Cycle)
board.processor.cores.core.lsq0.loadToUse::180-189           77      0.00%     99.96% # Distribution of cycle latency between the first time a load is issued and its completion (Cycle)
board.processor.cores.core.lsq0.loadToUse::190-199           86      0.00%     99.97% # Distribution of cycle latency between the first time a load is issued and its completion (Cycle)
board.processor.cores.core.lsq0.loadToUse::200-209          122      0.00%     99.97% # Distribution of cycle latency between the first time a load is issued and its completion (Cycle)
board.processor.cores.core.lsq0.loadToUse::210-219          120      0.00%     99.98% # Distribution of cycle latency between the first time a load is issued and its completion (Cycle)
board.processor.cores.core.lsq0.loadToUse::220-229           49      0.00%     99.98% # Distribution of cycle latency between the first time a load is issued and its completion (Cycle)
board.processor.cores.core.lsq0.loadToUse::230-239           75      0.00%     99.98% # Distribution of cycle latency between the first time a load is issued and its completion (Cycle)
board.processor.cores.core.lsq0.loadToUse::240-249          100      0.00%     99.98% # Distribution of cycle latency between the first time a load is issued and its completion (Cycle)
board.processor.cores.core.lsq0.loadToUse::250-259          152      0.00%     99.99% # Distribution of cycle latency between the first time a load is issued and its completion (Cycle)
board.processor.cores.core.lsq0.loadToUse::260-269           60      0.00%     99.99% # Distribution of cycle latency between the first time a load is issued and its completion (Cycle)
board.processor.cores.core.lsq0.loadToUse::270-279           44      0.00%     99.99% # Distribution of cycle latency between the first time a load is issued and its completion (Cycle)
board.processor.cores.core.lsq0.loadToUse::280-289           16      0.00%     99.99% # Distribution of cycle latency between the first time a load is issued and its completion (Cycle)
board.processor.cores.core.lsq0.loadToUse::290-299           28      0.00%     99.99% # Distribution of cycle latency between the first time a load is issued and its completion (Cycle)
board.processor.cores.core.lsq0.loadToUse::overflows          250      0.01%    100.00% # Distribution of cycle latency between the first time a load is issued and its completion (Cycle)
board.processor.cores.core.lsq0.loadToUse::min_value            2                       # Distribution of cycle latency between the first time a load is issued and its completion (Cycle)
board.processor.cores.core.lsq0.loadToUse::max_value         1131                       # Distribution of cycle latency between the first time a load is issued and its completion (Cycle)
board.processor.cores.core.lsq0.loadToUse::total      3108034                       # Distribution of cycle latency between the first time a load is issued and its completion (Cycle)
board.processor.cores.core.lsq0.addedLoadsAndStores      7462477                       # Number of loads and stores written to the Load Store Queue (Count)
board.processor.cores.core.lsq0.lqAvgOccupancy         0.07                       # Average LQ Occupancy (UsedSlots/TotalSlots) (Ratio)
board.processor.cores.core.lsq0.sqAvgOccupancy         0.10                       # Average SQ Occupancy (UsedSlots/TotalSlots) (Ratio)
board.processor.cores.core.mmu.alignFaults            0                       # Number of MMU faults due to alignment restrictions (Count)
board.processor.cores.core.mmu.prefetchFaults            0                       # Number of MMU faults due to prefetch (Count)
board.processor.cores.core.mmu.domainFaults            0                       # Number of MMU faults due to domain restrictions (Count)
board.processor.cores.core.mmu.permsFaults            0                       # Number of MMU faults due to permissions restrictions (Count)
board.processor.cores.core.mmu.dtb.readHits            0                       # Read hits (Count)
board.processor.cores.core.mmu.dtb.readMisses            0                       # Read misses (Count)
board.processor.cores.core.mmu.dtb.writeHits            0                       # Write hits (Count)
board.processor.cores.core.mmu.dtb.writeMisses            0                       # Write misses (Count)
board.processor.cores.core.mmu.dtb.inserts            0                       # Number of times an entry is inserted into the TLB (Count)
board.processor.cores.core.mmu.dtb.flushTlb            2                       # Number of times a TLB invalidation was requested (Count)
board.processor.cores.core.mmu.dtb.flushedEntries            0                       # Number of entries that have been flushed from TLB (Count)
board.processor.cores.core.mmu.dtb.readAccesses            0                       # Read accesses (Count)
board.processor.cores.core.mmu.dtb.writeAccesses            0                       # Write accesses (Count)
board.processor.cores.core.mmu.dtb.hits             0                       # Total TLB (inst and data) hits (Count)
board.processor.cores.core.mmu.dtb.misses            0                       # Total TLB (inst and data) misses (Count)
board.processor.cores.core.mmu.dtb.accesses            0                       # Total TLB (inst and data) accesses (Count)
board.processor.cores.core.mmu.itb.instHits            0                       # Inst hits (Count)
board.processor.cores.core.mmu.itb.instMisses            0                       # Inst misses (Count)
board.processor.cores.core.mmu.itb.inserts            0                       # Number of times an entry is inserted into the TLB (Count)
board.processor.cores.core.mmu.itb.flushTlb            2                       # Number of times a TLB invalidation was requested (Count)
board.processor.cores.core.mmu.itb.flushedEntries            0                       # Number of entries that have been flushed from TLB (Count)
board.processor.cores.core.mmu.itb.instAccesses            0                       # Inst accesses (Count)
board.processor.cores.core.mmu.itb.hits             0                       # Total TLB (inst and data) hits (Count)
board.processor.cores.core.mmu.itb.misses            0                       # Total TLB (inst and data) misses (Count)
board.processor.cores.core.mmu.itb.accesses            0                       # Total TLB (inst and data) accesses (Count)
board.processor.cores.core.mmu.l2_shared.instHits            0                       # Inst hits (Count)
board.processor.cores.core.mmu.l2_shared.instMisses            0                       # Inst misses (Count)
board.processor.cores.core.mmu.l2_shared.inserts            0                       # Number of times an entry is inserted into the TLB (Count)
board.processor.cores.core.mmu.l2_shared.flushTlb            0                       # Number of times a TLB invalidation was requested (Count)
board.processor.cores.core.mmu.l2_shared.flushedEntries            0                       # Number of entries that have been flushed from TLB (Count)
board.processor.cores.core.mmu.l2_shared.instAccesses            0                       # Inst accesses (Count)
board.processor.cores.core.mmu.l2_shared.hits            0                       # Total TLB (inst and data) hits (Count)
board.processor.cores.core.mmu.l2_shared.misses            0                       # Total TLB (inst and data) misses (Count)
board.processor.cores.core.mmu.l2_shared.accesses            0                       # Total TLB (inst and data) accesses (Count)
board.processor.cores.core.mmu.stage2_dtb.readHits            0                       # Read hits (Count)
board.processor.cores.core.mmu.stage2_dtb.readMisses            0                       # Read misses (Count)
board.processor.cores.core.mmu.stage2_dtb.writeHits            0                       # Write hits (Count)
board.processor.cores.core.mmu.stage2_dtb.writeMisses            0                       # Write misses (Count)
board.processor.cores.core.mmu.stage2_dtb.inserts            0                       # Number of times an entry is inserted into the TLB (Count)
board.processor.cores.core.mmu.stage2_dtb.flushTlb            2                       # Number of times a TLB invalidation was requested (Count)
board.processor.cores.core.mmu.stage2_dtb.flushedEntries            0                       # Number of entries that have been flushed from TLB (Count)
board.processor.cores.core.mmu.stage2_dtb.readAccesses            0                       # Read accesses (Count)
board.processor.cores.core.mmu.stage2_dtb.writeAccesses            0                       # Write accesses (Count)
board.processor.cores.core.mmu.stage2_dtb.hits            0                       # Total TLB (inst and data) hits (Count)
board.processor.cores.core.mmu.stage2_dtb.misses            0                       # Total TLB (inst and data) misses (Count)
board.processor.cores.core.mmu.stage2_dtb.accesses            0                       # Total TLB (inst and data) accesses (Count)
board.processor.cores.core.mmu.stage2_itb.instHits            0                       # Inst hits (Count)
board.processor.cores.core.mmu.stage2_itb.instMisses            0                       # Inst misses (Count)
board.processor.cores.core.mmu.stage2_itb.inserts            0                       # Number of times an entry is inserted into the TLB (Count)
board.processor.cores.core.mmu.stage2_itb.flushTlb            2                       # Number of times a TLB invalidation was requested (Count)
board.processor.cores.core.mmu.stage2_itb.flushedEntries            0                       # Number of entries that have been flushed from TLB (Count)
board.processor.cores.core.mmu.stage2_itb.instAccesses            0                       # Inst accesses (Count)
board.processor.cores.core.mmu.stage2_itb.hits            0                       # Total TLB (inst and data) hits (Count)
board.processor.cores.core.mmu.stage2_itb.misses            0                       # Total TLB (inst and data) misses (Count)
board.processor.cores.core.mmu.stage2_itb.accesses            0                       # Total TLB (inst and data) accesses (Count)
board.processor.cores.core.mmu.walker.instructionWalksS1            0                       # Table walker stage 1 instruction walks requested (Count)
board.processor.cores.core.mmu.walker.instructionWalksS2            0                       # Table walker stage 2 instruction walks requested (Count)
board.processor.cores.core.mmu.walker.dataWalksS1            0                       # Table walker stage 1 data walks requested (Count)
board.processor.cores.core.mmu.walker.dataWalksS2            0                       # Table walker stage 2 data walks requested (Count)
board.processor.cores.core.mmu.walker.requestOrigin_Requested::Data            0                       # Table walker requests started/completed, data/inst (Count)
board.processor.cores.core.mmu.walker.requestOrigin_Requested::Inst            0                       # Table walker requests started/completed, data/inst (Count)
board.processor.cores.core.mmu.walker.requestOrigin_Requested::total            0                       # Table walker requests started/completed, data/inst (Count)
board.processor.cores.core.mmu.walker.requestOrigin_Completed::Data            0                       # Table walker requests started/completed, data/inst (Count)
board.processor.cores.core.mmu.walker.requestOrigin_Completed::Inst            0                       # Table walker requests started/completed, data/inst (Count)
board.processor.cores.core.mmu.walker.requestOrigin_Completed::total            0                       # Table walker requests started/completed, data/inst (Count)
board.processor.cores.core.mmu.walker.requestOrigin::total            0                       # Table walker requests started/completed, data/inst (Count)
board.processor.cores.core.mmu.walker.walks            0                       # Table walker walks requested (Count)
board.processor.cores.core.mmu.walker.power_state.pwrStateResidencyTicks::UNDEFINED   3409823097                       # Cumulative time (in ticks) in various power states (Tick)
board.processor.cores.core.mmu.walker.walk_unit_func_s1.power_state.pwrStateResidencyTicks::UNDEFINED   3409823097                       # Cumulative time (in ticks) in various power states (Tick)
board.processor.cores.core.mmu.walker.walk_unit_func_s2.power_state.pwrStateResidencyTicks::UNDEFINED   3409823097                       # Cumulative time (in ticks) in various power states (Tick)
board.processor.cores.core.mmu.walker.walk_units0.power_state.pwrStateResidencyTicks::UNDEFINED   3409823097                       # Cumulative time (in ticks) in various power states (Tick)
board.processor.cores.core.mmu.walker.walk_units1.power_state.pwrStateResidencyTicks::UNDEFINED   3409823097                       # Cumulative time (in ticks) in various power states (Tick)
board.processor.cores.core.mmu.walker.walk_units2.power_state.pwrStateResidencyTicks::UNDEFINED   3409823097                       # Cumulative time (in ticks) in various power states (Tick)
board.processor.cores.core.mmu.walker.walk_units3.power_state.pwrStateResidencyTicks::UNDEFINED   3409823097                       # Cumulative time (in ticks) in various power states (Tick)
board.processor.cores.core.mmu.walker.walk_units4.power_state.pwrStateResidencyTicks::UNDEFINED   3409823097                       # Cumulative time (in ticks) in various power states (Tick)
board.processor.cores.core.mmu.walker.walk_units5.power_state.pwrStateResidencyTicks::UNDEFINED   3409823097                       # Cumulative time (in ticks) in various power states (Tick)
board.processor.cores.core.mmu.walker.walk_units6.power_state.pwrStateResidencyTicks::UNDEFINED   3409823097                       # Cumulative time (in ticks) in various power states (Tick)
board.processor.cores.core.mmu.walker.walk_units7.power_state.pwrStateResidencyTicks::UNDEFINED   3409823097                       # Cumulative time (in ticks) in various power states (Tick)
board.processor.cores.core.power_state.pwrStateResidencyTicks::ON   3409823097                       # Cumulative time (in ticks) in various power states (Tick)
board.processor.cores.core.rename.status::Running      5666212     55.59%     55.59% # Number of cycles rename is running (Cycle)
board.processor.cores.core.rename.status::Idle      3497493     34.32%     89.91% # Number of cycles rename is idle (Cycle)
board.processor.cores.core.rename.status::Squashing       178259      1.75%     91.66% # Number of cycles rename is squashing (Cycle)
board.processor.cores.core.rename.status::Blocked       518081      5.08%     96.74% # Number of cycles rename is blocking (Cycle)
board.processor.cores.core.rename.status::Unblocking       302767      2.97%     99.71% # Number of cycles rename is unblocking (Cycle)
board.processor.cores.core.rename.status::SerializeStall        29378      0.29%    100.00% # Number of cycles rename stalled for serializing inst (Cycle)
board.processor.cores.core.rename.renamedInsts     26685359                       # Number of instructions processed by rename (Count)
board.processor.cores.core.rename.squashedInsts       618777                       # Number of squashed instructions processed by rename (Count)
board.processor.cores.core.rename.ROBFullEvents         1550                       # Number of times rename has blocked due to ROB full (Count)
board.processor.cores.core.rename.SQFullEvents        86549                       # Number of times rename has blocked due to SQ full (Count)
board.processor.cores.core.rename.fullRegistersEvents       120886                       # Number of times there has been no free registers (Count)
board.processor.cores.core.rename.renamedOperands     29687721                       # Number of destination operands rename has renamed (Count)
board.processor.cores.core.rename.lookups     45994364                       # Number of register rename lookups that rename has made (Count)
board.processor.cores.core.rename.intLookups     29808734                       # Number of integer rename lookups (Count)
board.processor.cores.core.rename.vecLookups        50029                       # Number of vector rename lookups (Count)
board.processor.cores.core.rename.vecPredLookups        11225                       # Number of vector predicate rename lookups (Count)
board.processor.cores.core.rename.committedMaps     18265443                       # Number of HB maps that are committed (Count)
board.processor.cores.core.rename.undoneMaps     11422278                       # Number of HB maps that are undone due to squashing (Count)
board.processor.cores.core.rename.serializing          651                       # count of serializing insts renamed (Count)
board.processor.cores.core.rename.tempSerializing          640                       # count of temporary serializing insts renamed (Count)
board.processor.cores.core.rename.skidInsts       869107                       # count of insts added to the skid buffer (Count)
board.processor.cores.core.rename.intReturned     10642932                       # count of registers freed and written back to integer free list (Count)
board.processor.cores.core.rob.reads         34513207                       # The number of ROB reads (Count)
board.processor.cores.core.rob.writes        51013177                       # The number of ROB writes (Count)
board.processor.cores.core.thread_0.numInsts     15266628                       # Number of Instructions committed (Count)
board.processor.cores.core.thread_0.numOps     16310273                       # Number of Ops committed (Count)
board.processor.cores.core.thread_0.numMemRefs      4756552                       # Number of Memory References (Count)
board.processor.cores.core.workload.numSyscalls          556                       # Number of system calls (Count)
board.workload.inst.arm                             0                       # number of arm instructions executed (Count)
board.workload.inst.quiesce                         0                       # number of quiesce instructions executed (Count)

---------- End Simulation Statistics   ----------
