
---------- Begin Simulation Statistics ----------
simSeconds                                   0.004039                       # Number of seconds simulated (Second)
simTicks                                   4039356933                       # Number of ticks simulated (Tick)
finalTick                                  4039356933                       # Number of ticks from beginning of simulation (restored from checkpoints and never reset) (Tick)
simFreq                                  1000000000000                       # The number of ticks per simulated second ((Tick/Second))
hostSeconds                                     63.35                       # Real time elapsed on the host (Second)
hostTickRate                                 63762831                       # The number of ticks simulated per host second (ticks/s) ((Tick/Second))
hostMemory                                     288824                       # Number of bytes of host memory used (Byte)
simInsts                                     15265821                       # Number of instructions simulated (Count)
simOps                                       16309313                       # Number of ops (including micro ops) simulated (Count)
hostInstRate                                   240976                       # Simulator instruction rate (inst/s) ((Count/Second))
hostOpRate                                     257448                       # Simulator op (including micro ops) rate (op/s) ((Count/Second))
board.cache_hierarchy.l1dcaches.demandHits::processor.cores.core.data      5145570                       # number of demand (read+write) hits (Count)
board.cache_hierarchy.l1dcaches.demandHits::total      5145570                       # number of demand (read+write) hits (Count)
board.cache_hierarchy.l1dcaches.overallHits::processor.cores.core.data      5145570                       # number of overall hits (Count)
board.cache_hierarchy.l1dcaches.overallHits::total      5145570                       # number of overall hits (Count)
board.cache_hierarchy.l1dcaches.demandMisses::processor.cores.core.data        41093                       # number of demand (read+write) misses (Count)
board.cache_hierarchy.l1dcaches.demandMisses::total        41093                       # number of demand (read+write) misses (Count)
board.cache_hierarchy.l1dcaches.overallMisses::processor.cores.core.data        41093                       # number of overall misses (Count)
board.cache_hierarchy.l1dcaches.overallMisses::total        41093                       # number of overall misses (Count)
board.cache_hierarchy.l1dcaches.demandMissLatency::processor.cores.core.data    839467264                       # number of demand (read+write) miss ticks (Tick)
board.cache_hierarchy.l1dcaches.demandMissLatency::total    839467264                       # number of demand (read+write) miss ticks (Tick)
board.cache_hierarchy.l1dcaches.overallMissLatency::processor.cores.core.data    839467264                       # number of overall miss ticks (Tick)
board.cache_hierarchy.l1dcaches.overallMissLatency::total    839467264                       # number of overall miss ticks (Tick)
board.cache_hierarchy.l1dcaches.demandAccesses::processor.cores.core.data      5186663                       # number of demand (read+write) accesses (Count)
board.cache_hierarchy.l1dcaches.demandAccesses::total      5186663                       # number of demand (read+write) accesses (Count)
board.cache_hierarchy.l1dcaches.overallAccesses::processor.cores.core.data      5186663                       # number of overall (read+write) accesses (Count)
board.cache_hierarchy.l1dcaches.overallAccesses::total      5186663                       # number of overall (read+write) accesses (Count)
board.cache_hierarchy.l1dcaches.demandMissRate::processor.cores.core.data     0.007923                       # miss rate for demand accesses (Ratio)
board.cache_hierarchy.l1dcaches.demandMissRate::total     0.007923                       # miss rate for demand accesses (Ratio)
board.cache_hierarchy.l1dcaches.overallMissRate::processor.cores.core.data     0.007923                       # miss rate for overall accesses (Ratio)
board.cache_hierarchy.l1dcaches.overallMissRate::total     0.007923                       # miss rate for overall accesses (Ratio)
board.cache_hierarchy.l1dcaches.demandAvgMissLatency::processor.cores.core.data 20428.473560                       # average overall miss latency in ticks ((Tick/Count))
board.cache_hierarchy.l1dcaches.demandAvgMissLatency::total 20428.473560                       # average overall miss latency in ticks ((Tick/Count))
board.cache_hierarchy.l1dcaches.overallAvgMissLatency::processor.cores.core.data 20428.473560                       # average overall miss latency ((Tick/Count))
board.cache_hierarchy.l1dcaches.overallAvgMissLatency::total 20428.473560                       # average overall miss latency ((Tick/Count))
board.cache_hierarchy.l1dcaches.blockedCycles::no_mshrs         5113                       # number of cycles access was blocked (Cycle)
board.cache_hierarchy.l1dcaches.blockedCycles::no_wbuffers            0                       # number of cycles access was blocked (Cycle)
board.cache_hierarchy.l1dcaches.blockedCycles::no_targets        31705                       # number of cycles access was blocked (Cycle)
board.cache_hierarchy.l1dcaches.blockedCauses::no_mshrs          216                       # number of times access was blocked (Count)
board.cache_hierarchy.l1dcaches.blockedCauses::no_wbuffers            0                       # number of times access was blocked (Count)
board.cache_hierarchy.l1dcaches.blockedCauses::no_targets          937                       # number of times access was blocked (Count)
board.cache_hierarchy.l1dcaches.avgBlocked::no_mshrs    23.671296                       # average number of cycles each access was blocked ((Cycle/Count))
board.cache_hierarchy.l1dcaches.avgBlocked::no_wbuffers          nan                       # average number of cycles each access was blocked ((Cycle/Count))
board.cache_hierarchy.l1dcaches.avgBlocked::no_targets    33.836713                       # average number of cycles each access was blocked ((Cycle/Count))
board.cache_hierarchy.l1dcaches.writebacks::writebacks        57022                       # number of writebacks (Count)
board.cache_hierarchy.l1dcaches.writebacks::total        57022                       # number of writebacks (Count)
board.cache_hierarchy.l1dcaches.demandMshrHits::processor.cores.core.data        26618                       # number of demand (read+write) MSHR hits (Count)
board.cache_hierarchy.l1dcaches.demandMshrHits::total        26618                       # number of demand (read+write) MSHR hits (Count)
board.cache_hierarchy.l1dcaches.overallMshrHits::processor.cores.core.data        26618                       # number of overall MSHR hits (Count)
board.cache_hierarchy.l1dcaches.overallMshrHits::total        26618                       # number of overall MSHR hits (Count)
board.cache_hierarchy.l1dcaches.demandMshrMisses::processor.cores.core.data        14475                       # number of demand (read+write) MSHR misses (Count)
board.cache_hierarchy.l1dcaches.demandMshrMisses::total        14475                       # number of demand (read+write) MSHR misses (Count)
board.cache_hierarchy.l1dcaches.overallMshrMisses::cache_hierarchy.l1dcaches.prefetcher.prefetchers0        24934                       # number of overall MSHR misses (Count)
board.cache_hierarchy.l1dcaches.overallMshrMisses::cache_hierarchy.l1dcaches.prefetcher.prefetchers1         9727                       # number of overall MSHR misses (Count)
board.cache_hierarchy.l1dcaches.overallMshrMisses::cache_hierarchy.l1dcaches.prefetcher.prefetchers2         8915                       # number of overall MSHR misses (Count)
board.cache_hierarchy.l1dcaches.overallMshrMisses::processor.cores.core.data        14475                       # number of overall MSHR misses (Count)
board.cache_hierarchy.l1dcaches.overallMshrMisses::total        58051                       # number of overall MSHR misses (Count)
board.cache_hierarchy.l1dcaches.demandMshrMissLatency::processor.cores.core.data    305568235                       # number of demand (read+write) MSHR miss ticks (Tick)
board.cache_hierarchy.l1dcaches.demandMshrMissLatency::total    305568235                       # number of demand (read+write) MSHR miss ticks (Tick)
board.cache_hierarchy.l1dcaches.overallMshrMissLatency::cache_hierarchy.l1dcaches.prefetcher.prefetchers0    286243721                       # number of overall MSHR miss ticks (Tick)
board.cache_hierarchy.l1dcaches.overallMshrMissLatency::cache_hierarchy.l1dcaches.prefetcher.prefetchers1    221424856                       # number of overall MSHR miss ticks (Tick)
board.cache_hierarchy.l1dcaches.overallMshrMissLatency::cache_hierarchy.l1dcaches.prefetcher.prefetchers2    289052938                       # number of overall MSHR miss ticks (Tick)
board.cache_hierarchy.l1dcaches.overallMshrMissLatency::processor.cores.core.data    305568235                       # number of overall MSHR miss ticks (Tick)
board.cache_hierarchy.l1dcaches.overallMshrMissLatency::total   1102289750                       # number of overall MSHR miss ticks (Tick)
board.cache_hierarchy.l1dcaches.demandMshrMissRate::processor.cores.core.data     0.002791                       # mshr miss ratio for demand accesses (Ratio)
board.cache_hierarchy.l1dcaches.demandMshrMissRate::total     0.002791                       # mshr miss ratio for demand accesses (Ratio)
board.cache_hierarchy.l1dcaches.overallMshrMissRate::cache_hierarchy.l1dcaches.prefetcher.prefetchers0          inf                       # mshr miss ratio for overall accesses (Ratio)
board.cache_hierarchy.l1dcaches.overallMshrMissRate::cache_hierarchy.l1dcaches.prefetcher.prefetchers1          inf                       # mshr miss ratio for overall accesses (Ratio)
board.cache_hierarchy.l1dcaches.overallMshrMissRate::cache_hierarchy.l1dcaches.prefetcher.prefetchers2          inf                       # mshr miss ratio for overall accesses (Ratio)
board.cache_hierarchy.l1dcaches.overallMshrMissRate::processor.cores.core.data     0.002791                       # mshr miss ratio for overall accesses (Ratio)
board.cache_hierarchy.l1dcaches.overallMshrMissRate::total     0.011192                       # mshr miss ratio for overall accesses (Ratio)
board.cache_hierarchy.l1dcaches.demandAvgMshrMissLatency::processor.cores.core.data 21110.068048                       # average overall mshr miss latency ((Tick/Count))
board.cache_hierarchy.l1dcaches.demandAvgMshrMissLatency::total 21110.068048                       # average overall mshr miss latency ((Tick/Count))
board.cache_hierarchy.l1dcaches.overallAvgMshrMissLatency::cache_hierarchy.l1dcaches.prefetcher.prefetchers0 11480.056188                       # average overall mshr miss latency ((Tick/Count))
board.cache_hierarchy.l1dcaches.overallAvgMshrMissLatency::cache_hierarchy.l1dcaches.prefetcher.prefetchers1 22763.941195                       # average overall mshr miss latency ((Tick/Count))
board.cache_hierarchy.l1dcaches.overallAvgMshrMissLatency::cache_hierarchy.l1dcaches.prefetcher.prefetchers2 32423.212339                       # average overall mshr miss latency ((Tick/Count))
board.cache_hierarchy.l1dcaches.overallAvgMshrMissLatency::processor.cores.core.data 21110.068048                       # average overall mshr miss latency ((Tick/Count))
board.cache_hierarchy.l1dcaches.overallAvgMshrMissLatency::total 18988.299082                       # average overall mshr miss latency ((Tick/Count))
board.cache_hierarchy.l1dcaches.replacements        57022                       # number of replacements (Count)
board.cache_hierarchy.l1dcaches.HardPFReq.mshrMisses::cache_hierarchy.l1dcaches.prefetcher.prefetchers0        24934                       # number of HardPFReq MSHR misses (Count)
board.cache_hierarchy.l1dcaches.HardPFReq.mshrMisses::cache_hierarchy.l1dcaches.prefetcher.prefetchers1         9727                       # number of HardPFReq MSHR misses (Count)
board.cache_hierarchy.l1dcaches.HardPFReq.mshrMisses::cache_hierarchy.l1dcaches.prefetcher.prefetchers2         8915                       # number of HardPFReq MSHR misses (Count)
board.cache_hierarchy.l1dcaches.HardPFReq.mshrMisses::total        43576                       # number of HardPFReq MSHR misses (Count)
board.cache_hierarchy.l1dcaches.HardPFReq.mshrMissLatency::cache_hierarchy.l1dcaches.prefetcher.prefetchers0    286243721                       # number of HardPFReq MSHR miss ticks (Tick)
board.cache_hierarchy.l1dcaches.HardPFReq.mshrMissLatency::cache_hierarchy.l1dcaches.prefetcher.prefetchers1    221424856                       # number of HardPFReq MSHR miss ticks (Tick)
board.cache_hierarchy.l1dcaches.HardPFReq.mshrMissLatency::cache_hierarchy.l1dcaches.prefetcher.prefetchers2    289052938                       # number of HardPFReq MSHR miss ticks (Tick)
board.cache_hierarchy.l1dcaches.HardPFReq.mshrMissLatency::total    796721515                       # number of HardPFReq MSHR miss ticks (Tick)
board.cache_hierarchy.l1dcaches.HardPFReq.mshrMissRate::cache_hierarchy.l1dcaches.prefetcher.prefetchers0          inf                       # mshr miss rate for HardPFReq accesses (Ratio)
board.cache_hierarchy.l1dcaches.HardPFReq.mshrMissRate::cache_hierarchy.l1dcaches.prefetcher.prefetchers1          inf                       # mshr miss rate for HardPFReq accesses (Ratio)
board.cache_hierarchy.l1dcaches.HardPFReq.mshrMissRate::cache_hierarchy.l1dcaches.prefetcher.prefetchers2          inf                       # mshr miss rate for HardPFReq accesses (Ratio)
board.cache_hierarchy.l1dcaches.HardPFReq.mshrMissRate::total          inf                       # mshr miss rate for HardPFReq accesses (Ratio)
board.cache_hierarchy.l1dcaches.HardPFReq.avgMshrMissLatency::cache_hierarchy.l1dcaches.prefetcher.prefetchers0 11480.056188                       # average HardPFReq mshr miss latency ((Tick/Count))
board.cache_hierarchy.l1dcaches.HardPFReq.avgMshrMissLatency::cache_hierarchy.l1dcaches.prefetcher.prefetchers1 22763.941195                       # average HardPFReq mshr miss latency ((Tick/Count))
board.cache_hierarchy.l1dcaches.HardPFReq.avgMshrMissLatency::cache_hierarchy.l1dcaches.prefetcher.prefetchers2 32423.212339                       # average HardPFReq mshr miss latency ((Tick/Count))
board.cache_hierarchy.l1dcaches.HardPFReq.avgMshrMissLatency::total 18283.493551                       # average HardPFReq mshr miss latency ((Tick/Count))
board.cache_hierarchy.l1dcaches.LoadLockedReq.hits::processor.cores.core.data           20                       # number of LoadLockedReq hits (Count)
board.cache_hierarchy.l1dcaches.LoadLockedReq.hits::total           20                       # number of LoadLockedReq hits (Count)
board.cache_hierarchy.l1dcaches.LoadLockedReq.misses::processor.cores.core.data            1                       # number of LoadLockedReq misses (Count)
board.cache_hierarchy.l1dcaches.LoadLockedReq.misses::total            1                       # number of LoadLockedReq misses (Count)
board.cache_hierarchy.l1dcaches.LoadLockedReq.missLatency::processor.cores.core.data         6993                       # number of LoadLockedReq miss ticks (Tick)
board.cache_hierarchy.l1dcaches.LoadLockedReq.missLatency::total         6993                       # number of LoadLockedReq miss ticks (Tick)
board.cache_hierarchy.l1dcaches.LoadLockedReq.accesses::processor.cores.core.data           21                       # number of LoadLockedReq accesses(hits+misses) (Count)
board.cache_hierarchy.l1dcaches.LoadLockedReq.accesses::total           21                       # number of LoadLockedReq accesses(hits+misses) (Count)
board.cache_hierarchy.l1dcaches.LoadLockedReq.missRate::processor.cores.core.data     0.047619                       # miss rate for LoadLockedReq accesses (Ratio)
board.cache_hierarchy.l1dcaches.LoadLockedReq.missRate::total     0.047619                       # miss rate for LoadLockedReq accesses (Ratio)
board.cache_hierarchy.l1dcaches.LoadLockedReq.avgMissLatency::processor.cores.core.data         6993                       # average LoadLockedReq miss latency ((Tick/Count))
board.cache_hierarchy.l1dcaches.LoadLockedReq.avgMissLatency::total         6993                       # average LoadLockedReq miss latency ((Tick/Count))
board.cache_hierarchy.l1dcaches.LoadLockedReq.mshrMisses::processor.cores.core.data            1                       # number of LoadLockedReq MSHR misses (Count)
board.cache_hierarchy.l1dcaches.LoadLockedReq.mshrMisses::total            1                       # number of LoadLockedReq MSHR misses (Count)
board.cache_hierarchy.l1dcaches.LoadLockedReq.mshrMissLatency::processor.cores.core.data         5661                       # number of LoadLockedReq MSHR miss ticks (Tick)
board.cache_hierarchy.l1dcaches.LoadLockedReq.mshrMissLatency::total         5661                       # number of LoadLockedReq MSHR miss ticks (Tick)
board.cache_hierarchy.l1dcaches.LoadLockedReq.mshrMissRate::processor.cores.core.data     0.047619                       # mshr miss rate for LoadLockedReq accesses (Ratio)
board.cache_hierarchy.l1dcaches.LoadLockedReq.mshrMissRate::total     0.047619                       # mshr miss rate for LoadLockedReq accesses (Ratio)
board.cache_hierarchy.l1dcaches.LoadLockedReq.avgMshrMissLatency::processor.cores.core.data         5661                       # average LoadLockedReq mshr miss latency ((Tick/Count))
board.cache_hierarchy.l1dcaches.LoadLockedReq.avgMshrMissLatency::total         5661                       # average LoadLockedReq mshr miss latency ((Tick/Count))
board.cache_hierarchy.l1dcaches.ReadReq.hits::processor.cores.core.data      3522890                       # number of ReadReq hits (Count)
board.cache_hierarchy.l1dcaches.ReadReq.hits::total      3522890                       # number of ReadReq hits (Count)
board.cache_hierarchy.l1dcaches.ReadReq.misses::processor.cores.core.data        16436                       # number of ReadReq misses (Count)
board.cache_hierarchy.l1dcaches.ReadReq.misses::total        16436                       # number of ReadReq misses (Count)
board.cache_hierarchy.l1dcaches.ReadReq.missLatency::processor.cores.core.data    249479271                       # number of ReadReq miss ticks (Tick)
board.cache_hierarchy.l1dcaches.ReadReq.missLatency::total    249479271                       # number of ReadReq miss ticks (Tick)
board.cache_hierarchy.l1dcaches.ReadReq.accesses::processor.cores.core.data      3539326                       # number of ReadReq accesses(hits+misses) (Count)
board.cache_hierarchy.l1dcaches.ReadReq.accesses::total      3539326                       # number of ReadReq accesses(hits+misses) (Count)
board.cache_hierarchy.l1dcaches.ReadReq.missRate::processor.cores.core.data     0.004644                       # miss rate for ReadReq accesses (Ratio)
board.cache_hierarchy.l1dcaches.ReadReq.missRate::total     0.004644                       # miss rate for ReadReq accesses (Ratio)
board.cache_hierarchy.l1dcaches.ReadReq.avgMissLatency::processor.cores.core.data 15178.831285                       # average ReadReq miss latency ((Tick/Count))
board.cache_hierarchy.l1dcaches.ReadReq.avgMissLatency::total 15178.831285                       # average ReadReq miss latency ((Tick/Count))
board.cache_hierarchy.l1dcaches.ReadReq.mshrHits::processor.cores.core.data        11376                       # number of ReadReq MSHR hits (Count)
board.cache_hierarchy.l1dcaches.ReadReq.mshrHits::total        11376                       # number of ReadReq MSHR hits (Count)
board.cache_hierarchy.l1dcaches.ReadReq.mshrMisses::processor.cores.core.data         5060                       # number of ReadReq MSHR misses (Count)
board.cache_hierarchy.l1dcaches.ReadReq.mshrMisses::total         5060                       # number of ReadReq MSHR misses (Count)
board.cache_hierarchy.l1dcaches.ReadReq.mshrMissLatency::processor.cores.core.data     77644944                       # number of ReadReq MSHR miss ticks (Tick)
board.cache_hierarchy.l1dcaches.ReadReq.mshrMissLatency::total     77644944                       # number of ReadReq MSHR miss ticks (Tick)
board.cache_hierarchy.l1dcaches.ReadReq.mshrMissRate::processor.cores.core.data     0.001430                       # mshr miss rate for ReadReq accesses (Ratio)
board.cache_hierarchy.l1dcaches.ReadReq.mshrMissRate::total     0.001430                       # mshr miss rate for ReadReq accesses (Ratio)
board.cache_hierarchy.l1dcaches.ReadReq.avgMshrMissLatency::processor.cores.core.data 15344.850593                       # average ReadReq mshr miss latency ((Tick/Count))
board.cache_hierarchy.l1dcaches.ReadReq.avgMshrMissLatency::total 15344.850593                       # average ReadReq mshr miss latency ((Tick/Count))
board.cache_hierarchy.l1dcaches.StoreCondReq.hits::processor.cores.core.data            7                       # number of StoreCondReq hits (Count)
board.cache_hierarchy.l1dcaches.StoreCondReq.hits::total            7                       # number of StoreCondReq hits (Count)
board.cache_hierarchy.l1dcaches.StoreCondReq.accesses::processor.cores.core.data            7                       # number of StoreCondReq accesses(hits+misses) (Count)
board.cache_hierarchy.l1dcaches.StoreCondReq.accesses::total            7                       # number of StoreCondReq accesses(hits+misses) (Count)
board.cache_hierarchy.l1dcaches.SwapReq.hits::processor.cores.core.data           53                       # number of SwapReq hits (Count)
board.cache_hierarchy.l1dcaches.SwapReq.hits::total           53                       # number of SwapReq hits (Count)
board.cache_hierarchy.l1dcaches.SwapReq.misses::processor.cores.core.data            3                       # number of SwapReq misses (Count)
board.cache_hierarchy.l1dcaches.SwapReq.misses::total            3                       # number of SwapReq misses (Count)
board.cache_hierarchy.l1dcaches.SwapReq.missLatency::processor.cores.core.data        21645                       # number of SwapReq miss ticks (Tick)
board.cache_hierarchy.l1dcaches.SwapReq.missLatency::total        21645                       # number of SwapReq miss ticks (Tick)
board.cache_hierarchy.l1dcaches.SwapReq.accesses::processor.cores.core.data           56                       # number of SwapReq accesses(hits+misses) (Count)
board.cache_hierarchy.l1dcaches.SwapReq.accesses::total           56                       # number of SwapReq accesses(hits+misses) (Count)
board.cache_hierarchy.l1dcaches.SwapReq.missRate::processor.cores.core.data     0.053571                       # miss rate for SwapReq accesses (Ratio)
board.cache_hierarchy.l1dcaches.SwapReq.missRate::total     0.053571                       # miss rate for SwapReq accesses (Ratio)
board.cache_hierarchy.l1dcaches.SwapReq.avgMissLatency::processor.cores.core.data         7215                       # average SwapReq miss latency ((Tick/Count))
board.cache_hierarchy.l1dcaches.SwapReq.avgMissLatency::total         7215                       # average SwapReq miss latency ((Tick/Count))
board.cache_hierarchy.l1dcaches.SwapReq.mshrMisses::processor.cores.core.data            3                       # number of SwapReq MSHR misses (Count)
board.cache_hierarchy.l1dcaches.SwapReq.mshrMisses::total            3                       # number of SwapReq MSHR misses (Count)
board.cache_hierarchy.l1dcaches.SwapReq.mshrMissLatency::processor.cores.core.data        17649                       # number of SwapReq MSHR miss ticks (Tick)
board.cache_hierarchy.l1dcaches.SwapReq.mshrMissLatency::total        17649                       # number of SwapReq MSHR miss ticks (Tick)
board.cache_hierarchy.l1dcaches.SwapReq.mshrMissRate::processor.cores.core.data     0.053571                       # mshr miss rate for SwapReq accesses (Ratio)
board.cache_hierarchy.l1dcaches.SwapReq.mshrMissRate::total     0.053571                       # mshr miss rate for SwapReq accesses (Ratio)
board.cache_hierarchy.l1dcaches.SwapReq.avgMshrMissLatency::processor.cores.core.data         5883                       # average SwapReq mshr miss latency ((Tick/Count))
board.cache_hierarchy.l1dcaches.SwapReq.avgMshrMissLatency::total         5883                       # average SwapReq mshr miss latency ((Tick/Count))
board.cache_hierarchy.l1dcaches.WriteLineReq.misses::processor.cores.core.data           14                       # number of WriteLineReq misses (Count)
board.cache_hierarchy.l1dcaches.WriteLineReq.misses::total           14                       # number of WriteLineReq misses (Count)
board.cache_hierarchy.l1dcaches.WriteLineReq.missLatency::processor.cores.core.data       644352                       # number of WriteLineReq miss ticks (Tick)
board.cache_hierarchy.l1dcaches.WriteLineReq.missLatency::total       644352                       # number of WriteLineReq miss ticks (Tick)
board.cache_hierarchy.l1dcaches.WriteLineReq.accesses::processor.cores.core.data           14                       # number of WriteLineReq accesses(hits+misses) (Count)
board.cache_hierarchy.l1dcaches.WriteLineReq.accesses::total           14                       # number of WriteLineReq accesses(hits+misses) (Count)
board.cache_hierarchy.l1dcaches.WriteLineReq.missRate::processor.cores.core.data            1                       # miss rate for WriteLineReq accesses (Ratio)
board.cache_hierarchy.l1dcaches.WriteLineReq.missRate::total            1                       # miss rate for WriteLineReq accesses (Ratio)
board.cache_hierarchy.l1dcaches.WriteLineReq.avgMissLatency::processor.cores.core.data 46025.142857                       # average WriteLineReq miss latency ((Tick/Count))
board.cache_hierarchy.l1dcaches.WriteLineReq.avgMissLatency::total 46025.142857                       # average WriteLineReq miss latency ((Tick/Count))
board.cache_hierarchy.l1dcaches.WriteLineReq.mshrHits::processor.cores.core.data            4                       # number of WriteLineReq MSHR hits (Count)
board.cache_hierarchy.l1dcaches.WriteLineReq.mshrHits::total            4                       # number of WriteLineReq MSHR hits (Count)
board.cache_hierarchy.l1dcaches.WriteLineReq.mshrMisses::processor.cores.core.data           10                       # number of WriteLineReq MSHR misses (Count)
board.cache_hierarchy.l1dcaches.WriteLineReq.mshrMisses::total           10                       # number of WriteLineReq MSHR misses (Count)
board.cache_hierarchy.l1dcaches.WriteLineReq.mshrMissLatency::processor.cores.core.data       124872                       # number of WriteLineReq MSHR miss ticks (Tick)
board.cache_hierarchy.l1dcaches.WriteLineReq.mshrMissLatency::total       124872                       # number of WriteLineReq MSHR miss ticks (Tick)
board.cache_hierarchy.l1dcaches.WriteLineReq.mshrMissRate::processor.cores.core.data     0.714286                       # mshr miss rate for WriteLineReq accesses (Ratio)
board.cache_hierarchy.l1dcaches.WriteLineReq.mshrMissRate::total     0.714286                       # mshr miss rate for WriteLineReq accesses (Ratio)
board.cache_hierarchy.l1dcaches.WriteLineReq.avgMshrMissLatency::processor.cores.core.data 12487.200000                       # average WriteLineReq mshr miss latency ((Tick/Count))
board.cache_hierarchy.l1dcaches.WriteLineReq.avgMshrMissLatency::total 12487.200000                       # average WriteLineReq mshr miss latency ((Tick/Count))
board.cache_hierarchy.l1dcaches.WriteReq.hits::processor.cores.core.data      1622680                       # number of WriteReq hits (Count)
board.cache_hierarchy.l1dcaches.WriteReq.hits::total      1622680                       # number of WriteReq hits (Count)
board.cache_hierarchy.l1dcaches.WriteReq.misses::processor.cores.core.data        24643                       # number of WriteReq misses (Count)
board.cache_hierarchy.l1dcaches.WriteReq.misses::total        24643                       # number of WriteReq misses (Count)
board.cache_hierarchy.l1dcaches.WriteReq.missLatency::processor.cores.core.data    589343641                       # number of WriteReq miss ticks (Tick)
board.cache_hierarchy.l1dcaches.WriteReq.missLatency::total    589343641                       # number of WriteReq miss ticks (Tick)
board.cache_hierarchy.l1dcaches.WriteReq.accesses::processor.cores.core.data      1647323                       # number of WriteReq accesses(hits+misses) (Count)
board.cache_hierarchy.l1dcaches.WriteReq.accesses::total      1647323                       # number of WriteReq accesses(hits+misses) (Count)
board.cache_hierarchy.l1dcaches.WriteReq.missRate::processor.cores.core.data     0.014959                       # miss rate for WriteReq accesses (Ratio)
board.cache_hierarchy.l1dcaches.WriteReq.missRate::total     0.014959                       # miss rate for WriteReq accesses (Ratio)
board.cache_hierarchy.l1dcaches.WriteReq.avgMissLatency::processor.cores.core.data 23915.255488                       # average WriteReq miss latency ((Tick/Count))
board.cache_hierarchy.l1dcaches.WriteReq.avgMissLatency::total 23915.255488                       # average WriteReq miss latency ((Tick/Count))
board.cache_hierarchy.l1dcaches.WriteReq.mshrHits::processor.cores.core.data        15238                       # number of WriteReq MSHR hits (Count)
board.cache_hierarchy.l1dcaches.WriteReq.mshrHits::total        15238                       # number of WriteReq MSHR hits (Count)
board.cache_hierarchy.l1dcaches.WriteReq.mshrMisses::processor.cores.core.data         9405                       # number of WriteReq MSHR misses (Count)
board.cache_hierarchy.l1dcaches.WriteReq.mshrMisses::total         9405                       # number of WriteReq MSHR misses (Count)
board.cache_hierarchy.l1dcaches.WriteReq.mshrMissLatency::processor.cores.core.data    227798419                       # number of WriteReq MSHR miss ticks (Tick)
board.cache_hierarchy.l1dcaches.WriteReq.mshrMissLatency::total    227798419                       # number of WriteReq MSHR miss ticks (Tick)
board.cache_hierarchy.l1dcaches.WriteReq.mshrMissRate::processor.cores.core.data     0.005709                       # mshr miss rate for WriteReq accesses (Ratio)
board.cache_hierarchy.l1dcaches.WriteReq.mshrMissRate::total     0.005709                       # mshr miss rate for WriteReq accesses (Ratio)
board.cache_hierarchy.l1dcaches.WriteReq.avgMshrMissLatency::processor.cores.core.data 24220.990856                       # average WriteReq mshr miss latency ((Tick/Count))
board.cache_hierarchy.l1dcaches.WriteReq.avgMshrMissLatency::total 24220.990856                       # average WriteReq mshr miss latency ((Tick/Count))
board.cache_hierarchy.l1dcaches.power_state.pwrStateResidencyTicks::UNDEFINED   4039356933                       # Cumulative time (in ticks) in various power states (Tick)
board.cache_hierarchy.l1dcaches.prefetcher.demandMshrMisses            0                       # demands not covered by prefetchs (Count)
board.cache_hierarchy.l1dcaches.prefetcher.pfIssued       176296                       # number of hwpf issued (Count)
board.cache_hierarchy.l1dcaches.prefetcher.pfUseful            0                       # number of useful prefetch (Count)
board.cache_hierarchy.l1dcaches.prefetcher.pfUsefulButMiss            0                       # number of hit on prefetch but cache block is not in an usable state (Count)
board.cache_hierarchy.l1dcaches.prefetcher.accuracy            0                       # accuracy of the prefetcher (Count)
board.cache_hierarchy.l1dcaches.prefetcher.coverage          nan                       # coverage brought by this prefetcher (Count)
board.cache_hierarchy.l1dcaches.prefetcher.pfHitInCache       126575                       # number of prefetches hitting in cache (Count)
board.cache_hierarchy.l1dcaches.prefetcher.pfHitInMSHR         6143                       # number of prefetches hitting in a MSHR (Count)
board.cache_hierarchy.l1dcaches.prefetcher.pfHitInWB            2                       # number of prefetches hit in the Write Buffer (Count)
board.cache_hierarchy.l1dcaches.prefetcher.pfLate       132720                       # number of late prefetches (hitting in cache, MSHR or WB) (Count)
board.cache_hierarchy.l1dcaches.prefetcher.power_state.pwrStateResidencyTicks::UNDEFINED   4039356933                       # Cumulative time (in ticks) in various power states (Tick)
board.cache_hierarchy.l1dcaches.prefetcher.prefetchers0.demandMshrMisses        14475                       # demands not covered by prefetchs (Count)
board.cache_hierarchy.l1dcaches.prefetcher.prefetchers0.pfIssued       157274                       # number of hwpf issued (Count)
board.cache_hierarchy.l1dcaches.prefetcher.prefetchers0.pfUnused        10807                       # number of HardPF blocks evicted w/o reference (Count)
board.cache_hierarchy.l1dcaches.prefetcher.prefetchers0.pfUseful        21888                       # number of useful prefetch (Count)
board.cache_hierarchy.l1dcaches.prefetcher.prefetchers0.pfUsefulButMiss            0                       # number of hit on prefetch but cache block is not in an usable state (Count)
board.cache_hierarchy.l1dcaches.prefetcher.prefetchers0.accuracy     0.139171                       # accuracy of the prefetcher (Count)
board.cache_hierarchy.l1dcaches.prefetcher.prefetchers0.coverage     0.601931                       # coverage brought by this prefetcher (Count)
board.cache_hierarchy.l1dcaches.prefetcher.prefetchers0.pfHitInCache            0                       # number of prefetches hitting in cache (Count)
board.cache_hierarchy.l1dcaches.prefetcher.prefetchers0.pfHitInMSHR            0                       # number of prefetches hitting in a MSHR (Count)
board.cache_hierarchy.l1dcaches.prefetcher.prefetchers0.pfHitInWB            0                       # number of prefetches hit in the Write Buffer (Count)
board.cache_hierarchy.l1dcaches.prefetcher.prefetchers0.pfLate            0                       # number of late prefetches (hitting in cache, MSHR or WB) (Count)
board.cache_hierarchy.l1dcaches.prefetcher.prefetchers0.pfIdentified       165692                       # number of prefetch candidates identified (Count)
board.cache_hierarchy.l1dcaches.prefetcher.prefetchers0.pfBufferHit         6971                       # number of redundant prefetches already in prefetch queue (Count)
board.cache_hierarchy.l1dcaches.prefetcher.prefetchers0.pfInCache            0                       # number of redundant prefetches already in cache/mshr dropped (Count)
board.cache_hierarchy.l1dcaches.prefetcher.prefetchers0.pfRemovedDemand          735                       # number of prefetches dropped due to a demand for the same address (Count)
board.cache_hierarchy.l1dcaches.prefetcher.prefetchers0.pfRemovedFull            0                       # number of prefetches dropped due to prefetch queue size (Count)
board.cache_hierarchy.l1dcaches.prefetcher.prefetchers0.pfSpanPage        12892                       # number of prefetches that crossed the page (Count)
board.cache_hierarchy.l1dcaches.prefetcher.prefetchers0.pfUsefulSpanPage        11183                       # number of prefetches that is useful and crossed the page (Count)
board.cache_hierarchy.l1dcaches.prefetcher.prefetchers0.power_state.pwrStateResidencyTicks::UNDEFINED   4039356933                       # Cumulative time (in ticks) in various power states (Tick)
board.cache_hierarchy.l1dcaches.prefetcher.prefetchers1.demandMshrMisses        14475                       # demands not covered by prefetchs (Count)
board.cache_hierarchy.l1dcaches.prefetcher.prefetchers1.pfIssued        10040                       # number of hwpf issued (Count)
board.cache_hierarchy.l1dcaches.prefetcher.prefetchers1.pfUnused        10807                       # number of HardPF blocks evicted w/o reference (Count)
board.cache_hierarchy.l1dcaches.prefetcher.prefetchers1.pfUseful         4448                       # number of useful prefetch (Count)
board.cache_hierarchy.l1dcaches.prefetcher.prefetchers1.pfUsefulButMiss            0                       # number of hit on prefetch but cache block is not in an usable state (Count)
board.cache_hierarchy.l1dcaches.prefetcher.prefetchers1.accuracy     0.443028                       # accuracy of the prefetcher (Count)
board.cache_hierarchy.l1dcaches.prefetcher.prefetchers1.coverage     0.235058                       # coverage brought by this prefetcher (Count)
board.cache_hierarchy.l1dcaches.prefetcher.prefetchers1.pfHitInCache            0                       # number of prefetches hitting in cache (Count)
board.cache_hierarchy.l1dcaches.prefetcher.prefetchers1.pfHitInMSHR            0                       # number of prefetches hitting in a MSHR (Count)
board.cache_hierarchy.l1dcaches.prefetcher.prefetchers1.pfHitInWB            0                       # number of prefetches hit in the Write Buffer (Count)
board.cache_hierarchy.l1dcaches.prefetcher.prefetchers1.pfLate            0                       # number of late prefetches (hitting in cache, MSHR or WB) (Count)
board.cache_hierarchy.l1dcaches.prefetcher.prefetchers1.pfIdentified        42950                       # number of prefetch candidates identified (Count)
board.cache_hierarchy.l1dcaches.prefetcher.prefetchers1.pfBufferHit         3332                       # number of redundant prefetches already in prefetch queue (Count)
board.cache_hierarchy.l1dcaches.prefetcher.prefetchers1.pfInCache        20986                       # number of redundant prefetches already in cache/mshr dropped (Count)
board.cache_hierarchy.l1dcaches.prefetcher.prefetchers1.pfRemovedDemand          158                       # number of prefetches dropped due to a demand for the same address (Count)
board.cache_hierarchy.l1dcaches.prefetcher.prefetchers1.pfRemovedFull         8100                       # number of prefetches dropped due to prefetch queue size (Count)
board.cache_hierarchy.l1dcaches.prefetcher.prefetchers1.pfSpanPage            0                       # number of prefetches that crossed the page (Count)
board.cache_hierarchy.l1dcaches.prefetcher.prefetchers1.pfUsefulSpanPage            0                       # number of prefetches that is useful and crossed the page (Count)
board.cache_hierarchy.l1dcaches.prefetcher.prefetchers1.power_state.pwrStateResidencyTicks::UNDEFINED   4039356933                       # Cumulative time (in ticks) in various power states (Tick)
board.cache_hierarchy.l1dcaches.prefetcher.prefetchers2.demandMshrMisses        14475                       # demands not covered by prefetchs (Count)
board.cache_hierarchy.l1dcaches.prefetcher.prefetchers2.pfIssued         8982                       # number of hwpf issued (Count)
board.cache_hierarchy.l1dcaches.prefetcher.prefetchers2.pfUnused        10807                       # number of HardPF blocks evicted w/o reference (Count)
board.cache_hierarchy.l1dcaches.prefetcher.prefetchers2.pfUseful         5509                       # number of useful prefetch (Count)
board.cache_hierarchy.l1dcaches.prefetcher.prefetchers2.pfUsefulButMiss            0                       # number of hit on prefetch but cache block is not in an usable state (Count)
board.cache_hierarchy.l1dcaches.prefetcher.prefetchers2.accuracy     0.613338                       # accuracy of the prefetcher (Count)
board.cache_hierarchy.l1dcaches.prefetcher.prefetchers2.coverage     0.275671                       # coverage brought by this prefetcher (Count)
board.cache_hierarchy.l1dcaches.prefetcher.prefetchers2.pfHitInCache            0                       # number of prefetches hitting in cache (Count)
board.cache_hierarchy.l1dcaches.prefetcher.prefetchers2.pfHitInMSHR            0                       # number of prefetches hitting in a MSHR (Count)
board.cache_hierarchy.l1dcaches.prefetcher.prefetchers2.pfHitInWB            0                       # number of prefetches hit in the Write Buffer (Count)
board.cache_hierarchy.l1dcaches.prefetcher.prefetchers2.pfLate            0                       # number of late prefetches (hitting in cache, MSHR or WB) (Count)
board.cache_hierarchy.l1dcaches.prefetcher.prefetchers2.pfIdentified        24243                       # number of prefetch candidates identified (Count)
board.cache_hierarchy.l1dcaches.prefetcher.prefetchers2.pfBufferHit          319                       # number of redundant prefetches already in prefetch queue (Count)
board.cache_hierarchy.l1dcaches.prefetcher.prefetchers2.pfInCache        10524                       # number of redundant prefetches already in cache/mshr dropped (Count)
board.cache_hierarchy.l1dcaches.prefetcher.prefetchers2.pfRemovedDemand          112                       # number of prefetches dropped due to a demand for the same address (Count)
board.cache_hierarchy.l1dcaches.prefetcher.prefetchers2.pfRemovedFull          145                       # number of prefetches dropped due to prefetch queue size (Count)
board.cache_hierarchy.l1dcaches.prefetcher.prefetchers2.pfSpanPage         2893                       # number of prefetches that crossed the page (Count)
board.cache_hierarchy.l1dcaches.prefetcher.prefetchers2.pfUsefulSpanPage          476                       # number of prefetches that is useful and crossed the page (Count)
board.cache_hierarchy.l1dcaches.prefetcher.prefetchers2.power_state.pwrStateResidencyTicks::UNDEFINED   4039356933                       # Cumulative time (in ticks) in various power states (Tick)
board.cache_hierarchy.l1dcaches.tags.tagsInUse  1017.318426                       # Average ticks per tags in use ((Tick/Count))
board.cache_hierarchy.l1dcaches.tags.totalRefs      5203717                       # Total number of references to valid blocks. (Count)
board.cache_hierarchy.l1dcaches.tags.sampledRefs        58046                       # Sample count of references to valid blocks. (Count)
board.cache_hierarchy.l1dcaches.tags.avgRefs    89.648158                       # Average number of references to valid blocks. ((Count/Count))
board.cache_hierarchy.l1dcaches.tags.warmupTick       158841                       # The tick when the warmup percentage was hit. (Tick)
board.cache_hierarchy.l1dcaches.tags.occupancies::cache_hierarchy.l1dcaches.prefetcher.prefetchers0   349.204719                       # Average occupied blocks per tick, per requestor ((Count/Tick))
board.cache_hierarchy.l1dcaches.tags.occupancies::cache_hierarchy.l1dcaches.prefetcher.prefetchers1   127.845128                       # Average occupied blocks per tick, per requestor ((Count/Tick))
board.cache_hierarchy.l1dcaches.tags.occupancies::cache_hierarchy.l1dcaches.prefetcher.prefetchers2   327.332602                       # Average occupied blocks per tick, per requestor ((Count/Tick))
board.cache_hierarchy.l1dcaches.tags.occupancies::processor.cores.core.data   212.935978                       # Average occupied blocks per tick, per requestor ((Count/Tick))
board.cache_hierarchy.l1dcaches.tags.avgOccs::cache_hierarchy.l1dcaches.prefetcher.prefetchers0     0.341020                       # Average percentage of cache occupancy ((Ratio/Tick))
board.cache_hierarchy.l1dcaches.tags.avgOccs::cache_hierarchy.l1dcaches.prefetcher.prefetchers1     0.124849                       # Average percentage of cache occupancy ((Ratio/Tick))
board.cache_hierarchy.l1dcaches.tags.avgOccs::cache_hierarchy.l1dcaches.prefetcher.prefetchers2     0.319661                       # Average percentage of cache occupancy ((Ratio/Tick))
board.cache_hierarchy.l1dcaches.tags.avgOccs::processor.cores.core.data     0.207945                       # Average percentage of cache occupancy ((Ratio/Tick))
board.cache_hierarchy.l1dcaches.tags.avgOccs::total     0.993475                       # Average percentage of cache occupancy ((Ratio/Tick))
board.cache_hierarchy.l1dcaches.tags.occupanciesTaskId::1022          384                       # Occupied blocks per task id (Count)
board.cache_hierarchy.l1dcaches.tags.occupanciesTaskId::1024          640                       # Occupied blocks per task id (Count)
board.cache_hierarchy.l1dcaches.tags.ageTaskId_1022::0           37                       # Occupied blocks per task id, per block age (Count)
board.cache_hierarchy.l1dcaches.tags.ageTaskId_1022::1          283                       # Occupied blocks per task id, per block age (Count)
board.cache_hierarchy.l1dcaches.tags.ageTaskId_1022::2           63                       # Occupied blocks per task id, per block age (Count)
board.cache_hierarchy.l1dcaches.tags.ageTaskId_1022::3            1                       # Occupied blocks per task id, per block age (Count)
board.cache_hierarchy.l1dcaches.tags.ageTaskId_1024::0          156                       # Occupied blocks per task id, per block age (Count)
board.cache_hierarchy.l1dcaches.tags.ageTaskId_1024::1          459                       # Occupied blocks per task id, per block age (Count)
board.cache_hierarchy.l1dcaches.tags.ageTaskId_1024::2           25                       # Occupied blocks per task id, per block age (Count)
board.cache_hierarchy.l1dcaches.tags.ratioOccsTaskId::1022     0.375000                       # Ratio of occupied blocks and all blocks, per task id (Ratio)
board.cache_hierarchy.l1dcaches.tags.ratioOccsTaskId::1024     0.625000                       # Ratio of occupied blocks and all blocks, per task id (Ratio)
board.cache_hierarchy.l1dcaches.tags.tagAccesses     41552022                       # Number of tag accesses (Count)
board.cache_hierarchy.l1dcaches.tags.dataAccesses     41552022                       # Number of data accesses (Count)
board.cache_hierarchy.l1dcaches.tags.power_state.pwrStateResidencyTicks::UNDEFINED   4039356933                       # Cumulative time (in ticks) in various power states (Tick)
board.cache_hierarchy.l1icaches.demandHits::processor.cores.core.inst      3132093                       # number of demand (read+write) hits (Count)
board.cache_hierarchy.l1icaches.demandHits::total      3132093                       # number of demand (read+write) hits (Count)
board.cache_hierarchy.l1icaches.overallHits::processor.cores.core.inst      3132093                       # number of overall hits (Count)
board.cache_hierarchy.l1icaches.overallHits::total      3132093                       # number of overall hits (Count)
board.cache_hierarchy.l1icaches.demandMisses::processor.cores.core.inst         1207                       # number of demand (read+write) misses (Count)
board.cache_hierarchy.l1icaches.demandMisses::total         1207                       # number of demand (read+write) misses (Count)
board.cache_hierarchy.l1icaches.overallMisses::processor.cores.core.inst         1207                       # number of overall misses (Count)
board.cache_hierarchy.l1icaches.overallMisses::total         1207                       # number of overall misses (Count)
board.cache_hierarchy.l1icaches.demandMissLatency::processor.cores.core.inst     40988636                       # number of demand (read+write) miss ticks (Tick)
board.cache_hierarchy.l1icaches.demandMissLatency::total     40988636                       # number of demand (read+write) miss ticks (Tick)
board.cache_hierarchy.l1icaches.overallMissLatency::processor.cores.core.inst     40988636                       # number of overall miss ticks (Tick)
board.cache_hierarchy.l1icaches.overallMissLatency::total     40988636                       # number of overall miss ticks (Tick)
board.cache_hierarchy.l1icaches.demandAccesses::processor.cores.core.inst      3133300                       # number of demand (read+write) accesses (Count)
board.cache_hierarchy.l1icaches.demandAccesses::total      3133300                       # number of demand (read+write) accesses (Count)
board.cache_hierarchy.l1icaches.overallAccesses::processor.cores.core.inst      3133300                       # number of overall (read+write) accesses (Count)
board.cache_hierarchy.l1icaches.overallAccesses::total      3133300                       # number of overall (read+write) accesses (Count)
board.cache_hierarchy.l1icaches.demandMissRate::processor.cores.core.inst     0.000385                       # miss rate for demand accesses (Ratio)
board.cache_hierarchy.l1icaches.demandMissRate::total     0.000385                       # miss rate for demand accesses (Ratio)
board.cache_hierarchy.l1icaches.overallMissRate::processor.cores.core.inst     0.000385                       # miss rate for overall accesses (Ratio)
board.cache_hierarchy.l1icaches.overallMissRate::total     0.000385                       # miss rate for overall accesses (Ratio)
board.cache_hierarchy.l1icaches.demandAvgMissLatency::processor.cores.core.inst 33959.101906                       # average overall miss latency in ticks ((Tick/Count))
board.cache_hierarchy.l1icaches.demandAvgMissLatency::total 33959.101906                       # average overall miss latency in ticks ((Tick/Count))
board.cache_hierarchy.l1icaches.overallAvgMissLatency::processor.cores.core.inst 33959.101906                       # average overall miss latency ((Tick/Count))
board.cache_hierarchy.l1icaches.overallAvgMissLatency::total 33959.101906                       # average overall miss latency ((Tick/Count))
board.cache_hierarchy.l1icaches.blockedCycles::no_mshrs          392                       # number of cycles access was blocked (Cycle)
board.cache_hierarchy.l1icaches.blockedCycles::no_wbuffers            0                       # number of cycles access was blocked (Cycle)
board.cache_hierarchy.l1icaches.blockedCycles::no_targets          433                       # number of cycles access was blocked (Cycle)
board.cache_hierarchy.l1icaches.blockedCauses::no_mshrs           19                       # number of times access was blocked (Count)
board.cache_hierarchy.l1icaches.blockedCauses::no_wbuffers            0                       # number of times access was blocked (Count)
board.cache_hierarchy.l1icaches.blockedCauses::no_targets            5                       # number of times access was blocked (Count)
board.cache_hierarchy.l1icaches.avgBlocked::no_mshrs    20.631579                       # average number of cycles each access was blocked ((Cycle/Count))
board.cache_hierarchy.l1icaches.avgBlocked::no_wbuffers          nan                       # average number of cycles each access was blocked ((Cycle/Count))
board.cache_hierarchy.l1icaches.avgBlocked::no_targets    86.600000                       # average number of cycles each access was blocked ((Cycle/Count))
board.cache_hierarchy.l1icaches.writebacks::writebacks         4566                       # number of writebacks (Count)
board.cache_hierarchy.l1icaches.writebacks::total         4566                       # number of writebacks (Count)
board.cache_hierarchy.l1icaches.demandMshrHits::processor.cores.core.inst          793                       # number of demand (read+write) MSHR hits (Count)
board.cache_hierarchy.l1icaches.demandMshrHits::total          793                       # number of demand (read+write) MSHR hits (Count)
board.cache_hierarchy.l1icaches.overallMshrHits::processor.cores.core.inst          793                       # number of overall MSHR hits (Count)
board.cache_hierarchy.l1icaches.overallMshrHits::total          793                       # number of overall MSHR hits (Count)
board.cache_hierarchy.l1icaches.demandMshrMisses::processor.cores.core.inst          414                       # number of demand (read+write) MSHR misses (Count)
board.cache_hierarchy.l1icaches.demandMshrMisses::total          414                       # number of demand (read+write) MSHR misses (Count)
board.cache_hierarchy.l1icaches.overallMshrMisses::processor.cores.core.inst          414                       # number of overall MSHR misses (Count)
board.cache_hierarchy.l1icaches.overallMshrMisses::cache_hierarchy.l1icaches.prefetcher.prefetchers0         4614                       # number of overall MSHR misses (Count)
board.cache_hierarchy.l1icaches.overallMshrMisses::cache_hierarchy.l1icaches.prefetcher.prefetchers1          578                       # number of overall MSHR misses (Count)
board.cache_hierarchy.l1icaches.overallMshrMisses::total         5606                       # number of overall MSHR misses (Count)
board.cache_hierarchy.l1icaches.demandMshrMissLatency::processor.cores.core.inst     24885089                       # number of demand (read+write) MSHR miss ticks (Tick)
board.cache_hierarchy.l1icaches.demandMshrMissLatency::total     24885089                       # number of demand (read+write) MSHR miss ticks (Tick)
board.cache_hierarchy.l1icaches.overallMshrMissLatency::processor.cores.core.inst     24885089                       # number of overall MSHR miss ticks (Tick)
board.cache_hierarchy.l1icaches.overallMshrMissLatency::cache_hierarchy.l1icaches.prefetcher.prefetchers0    294448972                       # number of overall MSHR miss ticks (Tick)
board.cache_hierarchy.l1icaches.overallMshrMissLatency::cache_hierarchy.l1icaches.prefetcher.prefetchers1     32811666                       # number of overall MSHR miss ticks (Tick)
board.cache_hierarchy.l1icaches.overallMshrMissLatency::total    352145727                       # number of overall MSHR miss ticks (Tick)
board.cache_hierarchy.l1icaches.demandMshrMissRate::processor.cores.core.inst     0.000132                       # mshr miss ratio for demand accesses (Ratio)
board.cache_hierarchy.l1icaches.demandMshrMissRate::total     0.000132                       # mshr miss ratio for demand accesses (Ratio)
board.cache_hierarchy.l1icaches.overallMshrMissRate::processor.cores.core.inst     0.000132                       # mshr miss ratio for overall accesses (Ratio)
board.cache_hierarchy.l1icaches.overallMshrMissRate::cache_hierarchy.l1icaches.prefetcher.prefetchers0          inf                       # mshr miss ratio for overall accesses (Ratio)
board.cache_hierarchy.l1icaches.overallMshrMissRate::cache_hierarchy.l1icaches.prefetcher.prefetchers1          inf                       # mshr miss ratio for overall accesses (Ratio)
board.cache_hierarchy.l1icaches.overallMshrMissRate::total     0.001789                       # mshr miss ratio for overall accesses (Ratio)
board.cache_hierarchy.l1icaches.demandAvgMshrMissLatency::processor.cores.core.inst 60108.910628                       # average overall mshr miss latency ((Tick/Count))
board.cache_hierarchy.l1icaches.demandAvgMshrMissLatency::total 60108.910628                       # average overall mshr miss latency ((Tick/Count))
board.cache_hierarchy.l1icaches.overallAvgMshrMissLatency::processor.cores.core.inst 60108.910628                       # average overall mshr miss latency ((Tick/Count))
board.cache_hierarchy.l1icaches.overallAvgMshrMissLatency::cache_hierarchy.l1icaches.prefetcher.prefetchers0 63816.422193                       # average overall mshr miss latency ((Tick/Count))
board.cache_hierarchy.l1icaches.overallAvgMshrMissLatency::cache_hierarchy.l1icaches.prefetcher.prefetchers1 56767.588235                       # average overall mshr miss latency ((Tick/Count))
board.cache_hierarchy.l1icaches.overallAvgMshrMissLatency::total 62815.862826                       # average overall mshr miss latency ((Tick/Count))
board.cache_hierarchy.l1icaches.replacements         4566                       # number of replacements (Count)
board.cache_hierarchy.l1icaches.HardPFReq.mshrMisses::cache_hierarchy.l1icaches.prefetcher.prefetchers0         4614                       # number of HardPFReq MSHR misses (Count)
board.cache_hierarchy.l1icaches.HardPFReq.mshrMisses::cache_hierarchy.l1icaches.prefetcher.prefetchers1          578                       # number of HardPFReq MSHR misses (Count)
board.cache_hierarchy.l1icaches.HardPFReq.mshrMisses::total         5192                       # number of HardPFReq MSHR misses (Count)
board.cache_hierarchy.l1icaches.HardPFReq.mshrMissLatency::cache_hierarchy.l1icaches.prefetcher.prefetchers0    294448972                       # number of HardPFReq MSHR miss ticks (Tick)
board.cache_hierarchy.l1icaches.HardPFReq.mshrMissLatency::cache_hierarchy.l1icaches.prefetcher.prefetchers1     32811666                       # number of HardPFReq MSHR miss ticks (Tick)
board.cache_hierarchy.l1icaches.HardPFReq.mshrMissLatency::total    327260638                       # number of HardPFReq MSHR miss ticks (Tick)
board.cache_hierarchy.l1icaches.HardPFReq.mshrMissRate::cache_hierarchy.l1icaches.prefetcher.prefetchers0          inf                       # mshr miss rate for HardPFReq accesses (Ratio)
board.cache_hierarchy.l1icaches.HardPFReq.mshrMissRate::cache_hierarchy.l1icaches.prefetcher.prefetchers1          inf                       # mshr miss rate for HardPFReq accesses (Ratio)
board.cache_hierarchy.l1icaches.HardPFReq.mshrMissRate::total          inf                       # mshr miss rate for HardPFReq accesses (Ratio)
board.cache_hierarchy.l1icaches.HardPFReq.avgMshrMissLatency::cache_hierarchy.l1icaches.prefetcher.prefetchers0 63816.422193                       # average HardPFReq mshr miss latency ((Tick/Count))
board.cache_hierarchy.l1icaches.HardPFReq.avgMshrMissLatency::cache_hierarchy.l1icaches.prefetcher.prefetchers1 56767.588235                       # average HardPFReq mshr miss latency ((Tick/Count))
board.cache_hierarchy.l1icaches.HardPFReq.avgMshrMissLatency::total 63031.709938                       # average HardPFReq mshr miss latency ((Tick/Count))
board.cache_hierarchy.l1icaches.ReadReq.hits::processor.cores.core.inst      3132093                       # number of ReadReq hits (Count)
board.cache_hierarchy.l1icaches.ReadReq.hits::total      3132093                       # number of ReadReq hits (Count)
board.cache_hierarchy.l1icaches.ReadReq.misses::processor.cores.core.inst         1207                       # number of ReadReq misses (Count)
board.cache_hierarchy.l1icaches.ReadReq.misses::total         1207                       # number of ReadReq misses (Count)
board.cache_hierarchy.l1icaches.ReadReq.missLatency::processor.cores.core.inst     40988636                       # number of ReadReq miss ticks (Tick)
board.cache_hierarchy.l1icaches.ReadReq.missLatency::total     40988636                       # number of ReadReq miss ticks (Tick)
board.cache_hierarchy.l1icaches.ReadReq.accesses::processor.cores.core.inst      3133300                       # number of ReadReq accesses(hits+misses) (Count)
board.cache_hierarchy.l1icaches.ReadReq.accesses::total      3133300                       # number of ReadReq accesses(hits+misses) (Count)
board.cache_hierarchy.l1icaches.ReadReq.missRate::processor.cores.core.inst     0.000385                       # miss rate for ReadReq accesses (Ratio)
board.cache_hierarchy.l1icaches.ReadReq.missRate::total     0.000385                       # miss rate for ReadReq accesses (Ratio)
board.cache_hierarchy.l1icaches.ReadReq.avgMissLatency::processor.cores.core.inst 33959.101906                       # average ReadReq miss latency ((Tick/Count))
board.cache_hierarchy.l1icaches.ReadReq.avgMissLatency::total 33959.101906                       # average ReadReq miss latency ((Tick/Count))
board.cache_hierarchy.l1icaches.ReadReq.mshrHits::processor.cores.core.inst          793                       # number of ReadReq MSHR hits (Count)
board.cache_hierarchy.l1icaches.ReadReq.mshrHits::total          793                       # number of ReadReq MSHR hits (Count)
board.cache_hierarchy.l1icaches.ReadReq.mshrMisses::processor.cores.core.inst          414                       # number of ReadReq MSHR misses (Count)
board.cache_hierarchy.l1icaches.ReadReq.mshrMisses::total          414                       # number of ReadReq MSHR misses (Count)
board.cache_hierarchy.l1icaches.ReadReq.mshrMissLatency::processor.cores.core.inst     24885089                       # number of ReadReq MSHR miss ticks (Tick)
board.cache_hierarchy.l1icaches.ReadReq.mshrMissLatency::total     24885089                       # number of ReadReq MSHR miss ticks (Tick)
board.cache_hierarchy.l1icaches.ReadReq.mshrMissRate::processor.cores.core.inst     0.000132                       # mshr miss rate for ReadReq accesses (Ratio)
board.cache_hierarchy.l1icaches.ReadReq.mshrMissRate::total     0.000132                       # mshr miss rate for ReadReq accesses (Ratio)
board.cache_hierarchy.l1icaches.ReadReq.avgMshrMissLatency::processor.cores.core.inst 60108.910628                       # average ReadReq mshr miss latency ((Tick/Count))
board.cache_hierarchy.l1icaches.ReadReq.avgMshrMissLatency::total 60108.910628                       # average ReadReq mshr miss latency ((Tick/Count))
board.cache_hierarchy.l1icaches.power_state.pwrStateResidencyTicks::UNDEFINED   4039356933                       # Cumulative time (in ticks) in various power states (Tick)
board.cache_hierarchy.l1icaches.prefetcher.demandMshrMisses            0                       # demands not covered by prefetchs (Count)
board.cache_hierarchy.l1icaches.prefetcher.pfIssued         7407                       # number of hwpf issued (Count)
board.cache_hierarchy.l1icaches.prefetcher.pfUseful            0                       # number of useful prefetch (Count)
board.cache_hierarchy.l1icaches.prefetcher.pfUsefulButMiss            0                       # number of hit on prefetch but cache block is not in an usable state (Count)
board.cache_hierarchy.l1icaches.prefetcher.accuracy            0                       # accuracy of the prefetcher (Count)
board.cache_hierarchy.l1icaches.prefetcher.coverage          nan                       # coverage brought by this prefetcher (Count)
board.cache_hierarchy.l1icaches.prefetcher.pfHitInCache          597                       # number of prefetches hitting in cache (Count)
board.cache_hierarchy.l1icaches.prefetcher.pfHitInMSHR         1618                       # number of prefetches hitting in a MSHR (Count)
board.cache_hierarchy.l1icaches.prefetcher.pfHitInWB            0                       # number of prefetches hit in the Write Buffer (Count)
board.cache_hierarchy.l1icaches.prefetcher.pfLate         2215                       # number of late prefetches (hitting in cache, MSHR or WB) (Count)
board.cache_hierarchy.l1icaches.prefetcher.power_state.pwrStateResidencyTicks::UNDEFINED   4039356933                       # Cumulative time (in ticks) in various power states (Tick)
board.cache_hierarchy.l1icaches.prefetcher.prefetchers0.demandMshrMisses          414                       # demands not covered by prefetchs (Count)
board.cache_hierarchy.l1icaches.prefetcher.prefetchers0.pfIssued         5221                       # number of hwpf issued (Count)
board.cache_hierarchy.l1icaches.prefetcher.prefetchers0.pfUnused         2885                       # number of HardPF blocks evicted w/o reference (Count)
board.cache_hierarchy.l1icaches.prefetcher.prefetchers0.pfUseful         1108                       # number of useful prefetch (Count)
board.cache_hierarchy.l1icaches.prefetcher.prefetchers0.pfUsefulButMiss            0                       # number of hit on prefetch but cache block is not in an usable state (Count)
board.cache_hierarchy.l1icaches.prefetcher.prefetchers0.accuracy     0.212220                       # accuracy of the prefetcher (Count)
board.cache_hierarchy.l1icaches.prefetcher.prefetchers0.coverage     0.727989                       # coverage brought by this prefetcher (Count)
board.cache_hierarchy.l1icaches.prefetcher.prefetchers0.pfHitInCache            0                       # number of prefetches hitting in cache (Count)
board.cache_hierarchy.l1icaches.prefetcher.prefetchers0.pfHitInMSHR            0                       # number of prefetches hitting in a MSHR (Count)
board.cache_hierarchy.l1icaches.prefetcher.prefetchers0.pfHitInWB            0                       # number of prefetches hit in the Write Buffer (Count)
board.cache_hierarchy.l1icaches.prefetcher.prefetchers0.pfLate            0                       # number of late prefetches (hitting in cache, MSHR or WB) (Count)
board.cache_hierarchy.l1icaches.prefetcher.prefetchers0.fdipInsertions            0                       # Number of notifications from an insertion in the FTQ (Count)
board.cache_hierarchy.l1icaches.prefetcher.prefetchers0.pfIdentified     13634830                       # Number of prefetches identified. (Count)
board.cache_hierarchy.l1icaches.prefetcher.prefetchers0.pfSquashed        20954                       # Number of prefetches squashed. (Count)
board.cache_hierarchy.l1icaches.prefetcher.prefetchers0.pfInPFQ        22493                       # Number of prefetches hit in the prefetch queue (Count)
board.cache_hierarchy.l1icaches.prefetcher.prefetchers0.pfInTQ            0                       # Number of prefetches hit in the translation queue (Count)
board.cache_hierarchy.l1icaches.prefetcher.prefetchers0.pfInCache     13606821                       # Number of prefetches hit in in cache (Count)
board.cache_hierarchy.l1icaches.prefetcher.prefetchers0.pfInCachePrefetched            0                       # Number of prefetches hit in cache but prefetched (Count)
board.cache_hierarchy.l1icaches.prefetcher.prefetchers0.pfPacketsCreated        26177                       # Number of prefetch packets created (Count)
board.cache_hierarchy.l1icaches.prefetcher.prefetchers0.pfCandidatesAdded        26177                       # Number of prefetch candidates added to the prefetch queue (Count)
board.cache_hierarchy.l1icaches.prefetcher.prefetchers0.translationFail         1832                       # Number of prefetches that failed translation (Count)
board.cache_hierarchy.l1icaches.prefetcher.prefetchers0.translationSuccess     13632998                       # Number of prefetches that succeeded translation (Count)
board.cache_hierarchy.l1icaches.prefetcher.prefetchers0.pfqSizeDistAtNotify::samples     13634830                       # Distribution of the prefetch queue size at the time of notification of a new fetch target (Count)
board.cache_hierarchy.l1icaches.prefetcher.prefetchers0.pfqSizeDistAtNotify::mean     0.027485                       # Distribution of the prefetch queue size at the time of notification of a new fetch target (Count)
board.cache_hierarchy.l1icaches.prefetcher.prefetchers0.pfqSizeDistAtNotify::stdev     0.687929                       # Distribution of the prefetch queue size at the time of notification of a new fetch target (Count)
board.cache_hierarchy.l1icaches.prefetcher.prefetchers0.pfqSizeDistAtNotify::underflows            0      0.00%      0.00% # Distribution of the prefetch queue size at the time of notification of a new fetch target (Count)
board.cache_hierarchy.l1icaches.prefetcher.prefetchers0.pfqSizeDistAtNotify::0-3     13608638     99.81%     99.81% # Distribution of the prefetch queue size at the time of notification of a new fetch target (Count)
board.cache_hierarchy.l1icaches.prefetcher.prefetchers0.pfqSizeDistAtNotify::4-7         6911      0.05%     99.86% # Distribution of the prefetch queue size at the time of notification of a new fetch target (Count)
board.cache_hierarchy.l1icaches.prefetcher.prefetchers0.pfqSizeDistAtNotify::8-11         5480      0.04%     99.90% # Distribution of the prefetch queue size at the time of notification of a new fetch target (Count)
board.cache_hierarchy.l1icaches.prefetcher.prefetchers0.pfqSizeDistAtNotify::12-15         4169      0.03%     99.93% # Distribution of the prefetch queue size at the time of notification of a new fetch target (Count)
board.cache_hierarchy.l1icaches.prefetcher.prefetchers0.pfqSizeDistAtNotify::16-19         3518      0.03%     99.96% # Distribution of the prefetch queue size at the time of notification of a new fetch target (Count)
board.cache_hierarchy.l1icaches.prefetcher.prefetchers0.pfqSizeDistAtNotify::20-23         2732      0.02%     99.98% # Distribution of the prefetch queue size at the time of notification of a new fetch target (Count)
board.cache_hierarchy.l1icaches.prefetcher.prefetchers0.pfqSizeDistAtNotify::24-27         1837      0.01%     99.99% # Distribution of the prefetch queue size at the time of notification of a new fetch target (Count)
board.cache_hierarchy.l1icaches.prefetcher.prefetchers0.pfqSizeDistAtNotify::28-31          990      0.01%    100.00% # Distribution of the prefetch queue size at the time of notification of a new fetch target (Count)
board.cache_hierarchy.l1icaches.prefetcher.prefetchers0.pfqSizeDistAtNotify::32-35          542      0.00%    100.00% # Distribution of the prefetch queue size at the time of notification of a new fetch target (Count)
board.cache_hierarchy.l1icaches.prefetcher.prefetchers0.pfqSizeDistAtNotify::36-39            4      0.00%    100.00% # Distribution of the prefetch queue size at the time of notification of a new fetch target (Count)
board.cache_hierarchy.l1icaches.prefetcher.prefetchers0.pfqSizeDistAtNotify::40-43            4      0.00%    100.00% # Distribution of the prefetch queue size at the time of notification of a new fetch target (Count)
board.cache_hierarchy.l1icaches.prefetcher.prefetchers0.pfqSizeDistAtNotify::44-47            4      0.00%    100.00% # Distribution of the prefetch queue size at the time of notification of a new fetch target (Count)
board.cache_hierarchy.l1icaches.prefetcher.prefetchers0.pfqSizeDistAtNotify::48-51            1      0.00%    100.00% # Distribution of the prefetch queue size at the time of notification of a new fetch target (Count)
board.cache_hierarchy.l1icaches.prefetcher.prefetchers0.pfqSizeDistAtNotify::52-55            0      0.00%    100.00% # Distribution of the prefetch queue size at the time of notification of a new fetch target (Count)
board.cache_hierarchy.l1icaches.prefetcher.prefetchers0.pfqSizeDistAtNotify::56-59            0      0.00%    100.00% # Distribution of the prefetch queue size at the time of notification of a new fetch target (Count)
board.cache_hierarchy.l1icaches.prefetcher.prefetchers0.pfqSizeDistAtNotify::60-63            0      0.00%    100.00% # Distribution of the prefetch queue size at the time of notification of a new fetch target (Count)
board.cache_hierarchy.l1icaches.prefetcher.prefetchers0.pfqSizeDistAtNotify::64            0      0.00%    100.00% # Distribution of the prefetch queue size at the time of notification of a new fetch target (Count)
board.cache_hierarchy.l1icaches.prefetcher.prefetchers0.pfqSizeDistAtNotify::overflows            0      0.00%    100.00% # Distribution of the prefetch queue size at the time of notification of a new fetch target (Count)
board.cache_hierarchy.l1icaches.prefetcher.prefetchers0.pfqSizeDistAtNotify::min_value            0                       # Distribution of the prefetch queue size at the time of notification of a new fetch target (Count)
board.cache_hierarchy.l1icaches.prefetcher.prefetchers0.pfqSizeDistAtNotify::max_value           48                       # Distribution of the prefetch queue size at the time of notification of a new fetch target (Count)
board.cache_hierarchy.l1icaches.prefetcher.prefetchers0.pfqSizeDistAtNotify::total     13634830                       # Distribution of the prefetch queue size at the time of notification of a new fetch target (Count)
board.cache_hierarchy.l1icaches.prefetcher.prefetchers0.tqSizeDistAtNotify::samples     13634830                       # Distribution of the translation queue size at the time of notification of a new fetch target (Count)
board.cache_hierarchy.l1icaches.prefetcher.prefetchers0.tqSizeDistAtNotify::mean            0                       # Distribution of the translation queue size at the time of notification of a new fetch target (Count)
board.cache_hierarchy.l1icaches.prefetcher.prefetchers0.tqSizeDistAtNotify::stdev            0                       # Distribution of the translation queue size at the time of notification of a new fetch target (Count)
board.cache_hierarchy.l1icaches.prefetcher.prefetchers0.tqSizeDistAtNotify::underflows            0      0.00%      0.00% # Distribution of the translation queue size at the time of notification of a new fetch target (Count)
board.cache_hierarchy.l1icaches.prefetcher.prefetchers0.tqSizeDistAtNotify::0-3     13634830    100.00%    100.00% # Distribution of the translation queue size at the time of notification of a new fetch target (Count)
board.cache_hierarchy.l1icaches.prefetcher.prefetchers0.tqSizeDistAtNotify::4-7            0      0.00%    100.00% # Distribution of the translation queue size at the time of notification of a new fetch target (Count)
board.cache_hierarchy.l1icaches.prefetcher.prefetchers0.tqSizeDistAtNotify::8-11            0      0.00%    100.00% # Distribution of the translation queue size at the time of notification of a new fetch target (Count)
board.cache_hierarchy.l1icaches.prefetcher.prefetchers0.tqSizeDistAtNotify::12-15            0      0.00%    100.00% # Distribution of the translation queue size at the time of notification of a new fetch target (Count)
board.cache_hierarchy.l1icaches.prefetcher.prefetchers0.tqSizeDistAtNotify::16-19            0      0.00%    100.00% # Distribution of the translation queue size at the time of notification of a new fetch target (Count)
board.cache_hierarchy.l1icaches.prefetcher.prefetchers0.tqSizeDistAtNotify::20-23            0      0.00%    100.00% # Distribution of the translation queue size at the time of notification of a new fetch target (Count)
board.cache_hierarchy.l1icaches.prefetcher.prefetchers0.tqSizeDistAtNotify::24-27            0      0.00%    100.00% # Distribution of the translation queue size at the time of notification of a new fetch target (Count)
board.cache_hierarchy.l1icaches.prefetcher.prefetchers0.tqSizeDistAtNotify::28-31            0      0.00%    100.00% # Distribution of the translation queue size at the time of notification of a new fetch target (Count)
board.cache_hierarchy.l1icaches.prefetcher.prefetchers0.tqSizeDistAtNotify::32-35            0      0.00%    100.00% # Distribution of the translation queue size at the time of notification of a new fetch target (Count)
board.cache_hierarchy.l1icaches.prefetcher.prefetchers0.tqSizeDistAtNotify::36-39            0      0.00%    100.00% # Distribution of the translation queue size at the time of notification of a new fetch target (Count)
board.cache_hierarchy.l1icaches.prefetcher.prefetchers0.tqSizeDistAtNotify::40-43            0      0.00%    100.00% # Distribution of the translation queue size at the time of notification of a new fetch target (Count)
board.cache_hierarchy.l1icaches.prefetcher.prefetchers0.tqSizeDistAtNotify::44-47            0      0.00%    100.00% # Distribution of the translation queue size at the time of notification of a new fetch target (Count)
board.cache_hierarchy.l1icaches.prefetcher.prefetchers0.tqSizeDistAtNotify::48-51            0      0.00%    100.00% # Distribution of the translation queue size at the time of notification of a new fetch target (Count)
board.cache_hierarchy.l1icaches.prefetcher.prefetchers0.tqSizeDistAtNotify::52-55            0      0.00%    100.00% # Distribution of the translation queue size at the time of notification of a new fetch target (Count)
board.cache_hierarchy.l1icaches.prefetcher.prefetchers0.tqSizeDistAtNotify::56-59            0      0.00%    100.00% # Distribution of the translation queue size at the time of notification of a new fetch target (Count)
board.cache_hierarchy.l1icaches.prefetcher.prefetchers0.tqSizeDistAtNotify::60-63            0      0.00%    100.00% # Distribution of the translation queue size at the time of notification of a new fetch target (Count)
board.cache_hierarchy.l1icaches.prefetcher.prefetchers0.tqSizeDistAtNotify::64            0      0.00%    100.00% # Distribution of the translation queue size at the time of notification of a new fetch target (Count)
board.cache_hierarchy.l1icaches.prefetcher.prefetchers0.tqSizeDistAtNotify::overflows            0      0.00%    100.00% # Distribution of the translation queue size at the time of notification of a new fetch target (Count)
board.cache_hierarchy.l1icaches.prefetcher.prefetchers0.tqSizeDistAtNotify::min_value            0                       # Distribution of the translation queue size at the time of notification of a new fetch target (Count)
board.cache_hierarchy.l1icaches.prefetcher.prefetchers0.tqSizeDistAtNotify::max_value            0                       # Distribution of the translation queue size at the time of notification of a new fetch target (Count)
board.cache_hierarchy.l1icaches.prefetcher.prefetchers0.tqSizeDistAtNotify::total     13634830                       # Distribution of the translation queue size at the time of notification of a new fetch target (Count)
board.cache_hierarchy.l1icaches.prefetcher.prefetchers0.pfqInserts        26177                       # Number of insertions into the prefetch candidate queue (Count)
board.cache_hierarchy.l1icaches.prefetcher.prefetchers0.pfqPops         5221                       # Number of uses into the prefetch candidate queue (Count)
board.cache_hierarchy.l1icaches.prefetcher.prefetchers0.pfqDrops            0                       # Number of drops into the prefetch candidate queue (Count)
board.cache_hierarchy.l1icaches.prefetcher.prefetchers0.tqInserts     13634830                       # Number of insertions into the prefetch translation queue (Count)
board.cache_hierarchy.l1icaches.prefetcher.prefetchers0.tqPops     13634830                       # Number of uses into the prefetch translation queue (Count)
board.cache_hierarchy.l1icaches.prefetcher.prefetchers0.tqDrops            0                       # Number of drops into the prefetch translation queue (Count)
board.cache_hierarchy.l1icaches.prefetcher.prefetchers0.power_state.pwrStateResidencyTicks::UNDEFINED   4039356933                       # Cumulative time (in ticks) in various power states (Tick)
board.cache_hierarchy.l1icaches.prefetcher.prefetchers1.demandMshrMisses          414                       # demands not covered by prefetchs (Count)
board.cache_hierarchy.l1icaches.prefetcher.prefetchers1.pfIssued         2186                       # number of hwpf issued (Count)
board.cache_hierarchy.l1icaches.prefetcher.prefetchers1.pfUnused         2885                       # number of HardPF blocks evicted w/o reference (Count)
board.cache_hierarchy.l1icaches.prefetcher.prefetchers1.pfUseful          254                       # number of useful prefetch (Count)
board.cache_hierarchy.l1icaches.prefetcher.prefetchers1.pfUsefulButMiss            0                       # number of hit on prefetch but cache block is not in an usable state (Count)
board.cache_hierarchy.l1icaches.prefetcher.prefetchers1.accuracy     0.116194                       # accuracy of the prefetcher (Count)
board.cache_hierarchy.l1icaches.prefetcher.prefetchers1.coverage     0.380240                       # coverage brought by this prefetcher (Count)
board.cache_hierarchy.l1icaches.prefetcher.prefetchers1.pfHitInCache            0                       # number of prefetches hitting in cache (Count)
board.cache_hierarchy.l1icaches.prefetcher.prefetchers1.pfHitInMSHR            0                       # number of prefetches hitting in a MSHR (Count)
board.cache_hierarchy.l1icaches.prefetcher.prefetchers1.pfHitInWB            0                       # number of prefetches hit in the Write Buffer (Count)
[...]
board.processor.cores.core.lsq0.loadToUse::100-109          669      0.02%     99.91% # Distribution of cycle latency between the first time a load is issued and its completion (Cycle)
board.processor.cores.core.lsq0.loadToUse::110-119          154      0.00%     99.91% # Distribution of cycle latency between the first time a load is issued and its completion (Cycle)
board.processor.cores.core.lsq0.loadToUse::120-129          278      0.01%     99.92% # Distribution of cycle latency between the first time a load is issued and its completion (Cycle)
board.processor.cores.core.lsq0.loadToUse::130-139          220      0.01%     99.93% # Distribution of cycle latency between the first time a load is issued and its completion (Cycle)
board.processor.cores.core.lsq0.loadToUse::140-149          259      0.01%     99.94% # Distribution of cycle latency between the first time a load is issued and its completion (Cycle)
board.processor.cores.core.lsq0.loadToUse::150-159          259      0.01%     99.95% # Distribution of cycle latency between the first time a load is issued and its completion (Cycle)
board.processor.cores.core.lsq0.loadToUse::160-169          499      0.02%     99.96% # Distribution of cycle latency between the first time a load is issued and its completion (Cycle)
board.processor.cores.core.lsq0.loadToUse::170-179           90      0.00%     99.96% # Distribution of cycle latency between the first time a load is issued and its completion (Cycle)
board.processor.cores.core.lsq0.loadToUse::180-189           78      0.00%     99.97% # Distribution of cycle latency between the first time a load is issued and its completion (Cycle)
board.processor.cores.core.lsq0.loadToUse::190-199           68      0.00%     99.97% # Distribution of cycle latency between the first time a load is issued and its completion (Cycle)
board.processor.cores.core.lsq0.loadToUse::200-209           74      0.00%     99.97% # Distribution of cycle latency between the first time a load is issued and its completion (Cycle)
board.processor.cores.core.lsq0.loadToUse::210-219           83      0.00%     99.97% # Distribution of cycle latency between the first time a load is issued and its completion (Cycle)
board.processor.cores.core.lsq0.loadToUse::220-229           48      0.00%     99.98% # Distribution of cycle latency between the first time a load is issued and its completion (Cycle)
board.processor.cores.core.lsq0.loadToUse::230-239           49      0.00%     99.98% # Distribution of cycle latency between the first time a load is issued and its completion (Cycle)
board.processor.cores.core.lsq0.loadToUse::240-249          112      0.00%     99.98% # Distribution of cycle latency between the first time a load is issued and its completion (Cycle)
board.processor.cores.core.lsq0.loadToUse::250-259          140      0.00%     99.99% # Distribution of cycle latency between the first time a load is issued and its completion (Cycle)
board.processor.cores.core.lsq0.loadToUse::260-269           61      0.00%     99.99% # Distribution of cycle latency between the first time a load is issued and its completion (Cycle)
board.processor.cores.core.lsq0.loadToUse::270-279           33      0.00%     99.99% # Distribution of cycle latency between the first time a load is issued and its completion (Cycle)
board.processor.cores.core.lsq0.loadToUse::280-289           30      0.00%     99.99% # Distribution of cycle latency between the first time a load is issued and its completion (Cycle)
board.processor.cores.core.lsq0.loadToUse::290-299           16      0.00%     99.99% # Distribution of cycle latency between the first time a load is issued and its completion (Cycle)
board.processor.cores.core.lsq0.loadToUse::overflows          326      0.01%    100.00% # Distribution of cycle latency between the first time a load is issued and its completion (Cycle)
board.processor.cores.core.lsq0.loadToUse::min_value            2                       # Distribution of cycle latency between the first time a load is issued and its completion (Cycle)
board.processor.cores.core.lsq0.loadToUse::max_value         1133                       # Distribution of cycle latency between the first time a load is issued and its completion (Cycle)
board.processor.cores.core.lsq0.loadToUse::total      3107861                       # Distribution of cycle latency between the first time a load is issued and its completion (Cycle)
board.processor.cores.core.lsq0.addedLoadsAndStores      8974531                       # Number of loads and stores written to the Load Store Queue (Count)
board.processor.cores.core.lsq0.lqAvgOccupancy         0.10                       # Average LQ Occupancy (UsedSlots/TotalSlots) (Ratio)
board.processor.cores.core.lsq0.sqAvgOccupancy         0.13                       # Average SQ Occupancy (UsedSlots/TotalSlots) (Ratio)
board.processor.cores.core.mmu.alignFaults            0                       # Number of MMU faults due to alignment restrictions (Count)
board.processor.cores.core.mmu.prefetchFaults            0                       # Number of MMU faults due to prefetch (Count)
board.processor.cores.core.mmu.domainFaults            0                       # Number of MMU faults due to domain restrictions (Count)
board.processor.cores.core.mmu.permsFaults            0                       # Number of MMU faults due to permissions restrictions (Count)
board.processor.cores.core.mmu.dtb.readHits            0                       # Read hits (Count)
board.processor.cores.core.mmu.dtb.readMisses            0                       # Read misses (Count)
board.processor.cores.core.mmu.dtb.writeHits            0                       # Write hits (Count)
board.processor.cores.core.mmu.dtb.writeMisses            0                       # Write misses (Count)
board.processor.cores.core.mmu.dtb.inserts            0                       # Number of times an entry is inserted into the TLB (Count)
board.processor.cores.core.mmu.dtb.flushTlb            2                       # Number of times a TLB invalidation was requested (Count)
board.processor.cores.core.mmu.dtb.flushedEntries            0                       # Number of entries that have been flushed from TLB (Count)
board.processor.cores.core.mmu.dtb.readAccesses            0                       # Read accesses (Count)
board.processor.cores.core.mmu.dtb.writeAccesses            0                       # Write accesses (Count)
board.processor.cores.core.mmu.dtb.hits             0                       # Total TLB (inst and data) hits (Count)
board.processor.cores.core.mmu.dtb.misses            0                       # Total TLB (inst and data) misses (Count)
board.processor.cores.core.mmu.dtb.accesses            0                       # Total TLB (inst and data) accesses (Count)
board.processor.cores.core.mmu.itb.instHits            0                       # Inst hits (Count)
board.processor.cores.core.mmu.itb.instMisses            0                       # Inst misses (Count)
board.processor.cores.core.mmu.itb.inserts            0                       # Number of times an entry is inserted into the TLB (Count)
board.processor.cores.core.mmu.itb.flushTlb            2                       # Number of times a TLB invalidation was requested (Count)
board.processor.cores.core.mmu.itb.flushedEntries            0                       # Number of entries that have been flushed from TLB (Count)
board.processor.cores.core.mmu.itb.instAccesses            0                       # Inst accesses (Count)
board.processor.cores.core.mmu.itb.hits             0                       # Total TLB (inst and data) hits (Count)
board.processor.cores.core.mmu.itb.misses            0                       # Total TLB (inst and data) misses (Count)
board.processor.cores.core.mmu.itb.accesses            0                       # Total TLB (inst and data) accesses (Count)
board.processor.cores.core.mmu.l2_shared.instHits            0                       # Inst hits (Count)
board.processor.cores.core.mmu.l2_shared.instMisses            0                       # Inst misses (Count)
board.processor.cores.core.mmu.l2_shared.inserts            0                       # Number of times an entry is inserted into the TLB (Count)
board.processor.cores.core.mmu.l2_shared.flushTlb            0                       # Number of times a TLB invalidation was requested (Count)
board.processor.cores.core.mmu.l2_shared.flushedEntries            0                       # Number of entries that have been flushed from TLB (Count)
board.processor.cores.core.mmu.l2_shared.instAccesses            0                       # Inst accesses (Count)
board.processor.cores.core.mmu.l2_shared.hits            0                       # Total TLB (inst and data) hits (Count)
board.processor.cores.core.mmu.l2_shared.misses            0                       # Total TLB (inst and data) misses (Count)
board.processor.cores.core.mmu.l2_shared.accesses            0                       # Total TLB (inst and data) accesses (Count)
board.processor.cores.core.mmu.stage2_dtb.readHits            0                       # Read hits (Count)
board.processor.cores.core.mmu.stage2_dtb.readMisses            0                       # Read misses (Count)
board.processor.cores.core.mmu.stage2_dtb.writeHits            0                       # Write hits (Count)
board.processor.cores.core.mmu.stage2_dtb.writeMisses            0                       # Write misses (Count)
board.processor.cores.core.mmu.stage2_dtb.inserts            0                       # Number of times an entry is inserted into the TLB (Count)
board.processor.cores.core.mmu.stage2_dtb.flushTlb            2                       # Number of times a TLB invalidation was requested (Count)
board.processor.cores.core.mmu.stage2_dtb.flushedEntries            0                       # Number of entries that have been flushed from TLB (Count)
board.processor.cores.core.mmu.stage2_dtb.readAccesses            0                       # Read accesses (Count)
board.processor.cores.core.mmu.stage2_dtb.writeAccesses            0                       # Write accesses (Count)
board.processor.cores.core.mmu.stage2_dtb.hits            0                       # Total TLB (inst and data) hits (Count)
board.processor.cores.core.mmu.stage2_dtb.misses            0                       # Total TLB (inst and data) misses (Count)
board.processor.cores.core.mmu.stage2_dtb.accesses            0                       # Total TLB (inst and data) accesses (Count)
board.processor.cores.core.mmu.stage2_itb.instHits            0                       # Inst hits (Count)
board.processor.cores.core.mmu.stage2_itb.instMisses            0                       # Inst misses (Count)
board.processor.cores.core.mmu.stage2_itb.inserts            0                       # Number of times an entry is inserted into the TLB (Count)
board.processor.cores.core.mmu.stage2_itb.flushTlb            2                       # Number of times a TLB invalidation was requested (Count)
board.processor.cores.core.mmu.stage2_itb.flushedEntries            0                       # Number of entries that have been flushed from TLB (Count)
board.processor.cores.core.mmu.stage2_itb.instAccesses            0                       # Inst accesses (Count)
board.processor.cores.core.mmu.stage2_itb.hits            0                       # Total TLB (inst and data) hits (Count)
board.processor.cores.core.mmu.stage2_itb.misses            0                       # Total TLB (inst and data) misses (Count)
board.processor.cores.core.mmu.stage2_itb.accesses            0                       # Total TLB (inst and data) accesses (Count)
board.processor.cores.core.mmu.walker.instructionWalksS1            0                       # Table walker stage 1 instruction walks requested (Count)
board.processor.cores.core.mmu.walker.instructionWalksS2            0                       # Table walker stage 2 instruction walks requested (Count)
board.processor.cores.core.mmu.walker.dataWalksS1            0                       # Table walker stage 1 data walks requested (Count)
board.processor.cores.core.mmu.walker.dataWalksS2            0                       # Table walker stage 2 data walks requested (Count)
board.processor.cores.core.mmu.walker.requestOrigin_Requested::Data            0                       # Table walker requests started/completed, data/inst (Count)
board.processor.cores.core.mmu.walker.requestOrigin_Requested::Inst            0                       # Table walker requests started/completed, data/inst (Count)
board.processor.cores.core.mmu.walker.requestOrigin_Requested::total            0                       # Table walker requests started/completed, data/inst (Count)
board.processor.cores.core.mmu.walker.requestOrigin_Completed::Data            0                       # Table walker requests started/completed, data/inst (Count)
board.processor.cores.core.mmu.walker.requestOrigin_Completed::Inst            0                       # Table walker requests started/completed, data/inst (Count)
board.processor.cores.core.mmu.walker.requestOrigin_Completed::total            0                       # Table walker requests started/completed, data/inst (Count)
board.processor.cores.core.mmu.walker.requestOrigin::total            0                       # Table walker requests started/completed, data/inst (Count)
board.processor.cores.core.mmu.walker.walks            0                       # Table walker walks requested (Count)
board.processor.cores.core.mmu.walker.power_state.pwrStateResidencyTicks::UNDEFINED   4039356933                       # Cumulative time (in ticks) in various power states (Tick)
board.processor.cores.core.mmu.walker.walk_unit_func_s1.power_state.pwrStateResidencyTicks::UNDEFINED   4039356933                       # Cumulative time (in ticks) in various power states (Tick)
board.processor.cores.core.mmu.walker.walk_unit_func_s2.power_state.pwrStateResidencyTicks::UNDEFINED   4039356933                       # Cumulative time (in ticks) in various power states (Tick)
board.processor.cores.core.mmu.walker.walk_units0.power_state.pwrStateResidencyTicks::UNDEFINED   4039356933                       # Cumulative time (in ticks) in various power states (Tick)
board.processor.cores.core.mmu.walker.walk_units1.power_state.pwrStateResidencyTicks::UNDEFINED   4039356933                       # Cumulative time (in ticks) in various power states (Tick)
board.processor.cores.core.mmu.walker.walk_units2.power_state.pwrStateResidencyTicks::UNDEFINED   4039356933                       # Cumulative time (in ticks) in various power states (Tick)
board.processor.cores.core.mmu.walker.walk_units3.power_state.pwrStateResidencyTicks::UNDEFINED   4039356933                       # Cumulative time (in ticks) in various power states (Tick)
board.processor.cores.core.mmu.walker.walk_units4.power_state.pwrStateResidencyTicks::UNDEFINED   4039356933                       # Cumulative time (in ticks) in various power states (Tick)
board.processor.cores.core.mmu.walker.walk_units5.power_state.pwrStateResidencyTicks::UNDEFINED   4039356933                       # Cumulative time (in ticks) in various power states (Tick)
board.processor.cores.core.mmu.walker.walk_units6.power_state.pwrStateResidencyTicks::UNDEFINED   4039356933                       # Cumulative time (in ticks) in various power states (Tick)
board.processor.cores.core.mmu.walker.walk_units7.power_state.pwrStateResidencyTicks::UNDEFINED   4039356933                       # Cumulative time (in ticks) in various power states (Tick)
board.processor.cores.core.power_state.pwrStateResidencyTicks::ON   4039356933                       # Cumulative time (in ticks) in various power states (Tick)
board.processor.cores.core.rename.status::Running      6928956     57.33%     57.33% # Number of cycles rename is running (Cycle)
board.processor.cores.core.rename.status::Idle      3908306     32.34%     89.67% # Number of cycles rename is idle (Cycle)
board.processor.cores.core.rename.status::Squashing       180847      1.50%     91.17% # Number of cycles rename is squashing (Cycle)
board.processor.cores.core.rename.status::Blocked       172447      1.43%     92.60% # Number of cycles rename is blocking (Cycle)
board.processor.cores.core.rename.status::Unblocking       862915      7.14%     99.74% # Number of cycles rename is unblocking (Cycle)
board.processor.cores.core.rename.status::SerializeStall        31791      0.26%    100.00% # Number of cycles rename stalled for serializing inst (Cycle)
board.processor.cores.core.rename.renamedInsts     32938750                       # Number of instructions processed by rename (Count)
board.processor.cores.core.rename.squashedInsts       782356                       # Number of squashed instructions processed by rename (Count)
board.processor.cores.core.rename.ROBFullEvents        35570                       # Number of times rename has blocked due to ROB full (Count)
board.processor.cores.core.rename.IQFullEvents        78213                       # Number of times rename has blocked due to IQ full (Count)
board.processor.cores.core.rename.SQFullEvents       129035                       # Number of times rename has blocked due to SQ full (Count)
board.processor.cores.core.rename.fullRegistersEvents       622947                       # Number of times there has been no free registers (Count)
board.processor.cores.core.rename.renamedOperands     36691708                       # Number of destination operands rename has renamed (Count)
board.processor.cores.core.rename.lookups     57499423                       # Number of register rename lookups that rename has made (Count)
board.processor.cores.core.rename.intLookups     36042277                       # Number of integer rename lookups (Count)
board.processor.cores.core.rename.vecLookups        55034                       # Number of vector rename lookups (Count)
board.processor.cores.core.rename.vecPredLookups        12171                       # Number of vector predicate rename lookups (Count)
board.processor.cores.core.rename.committedMaps     18264462                       # Number of HB maps that are committed (Count)
board.processor.cores.core.rename.undoneMaps     18427246                       # Number of HB maps that are undone due to squashing (Count)
board.processor.cores.core.rename.serializing          675                       # count of serializing insts renamed (Count)
board.processor.cores.core.rename.tempSerializing          660                       # count of temporary serializing insts renamed (Count)
board.processor.cores.core.rename.skidInsts       995691                       # count of insts added to the skid buffer (Count)
board.processor.cores.core.rename.intReturned     10642346                       # count of registers freed and written back to integer free list (Count)
board.processor.cores.core.rob.reads         42308349                       # The number of ROB reads (Count)
board.processor.cores.core.rob.writes        63217121                       # The number of ROB writes (Count)
board.processor.cores.core.thread_0.numInsts     15265821                       # Number of Instructions committed (Count)
board.processor.cores.core.thread_0.numOps     16309313                       # Number of Ops committed (Count)
board.processor.cores.core.thread_0.numMemRefs      4756237                       # Number of Memory References (Count)
board.processor.cores.core.workload.numSyscalls          556                       # Number of system calls (Count)
board.workload.inst.arm                             0                       # number of arm instructions executed (Count)
board.workload.inst.quiesce                         0                       # number of quiesce instructions executed (Count)

---------- End Simulation Statistics   ----------
