[VMEM] WARNING: physical memory size is smaller than virtual memory size.

*** ChampSim Multicore Out-of-Order Simulator ***
Warmup Instructions: 5000000
Simulation Instructions: 25000000
Number of CPUs: 1
Page size: 4096

Off-chip DRAM Size: 16 GiB Channels: 1 Width: 64-bit Data Rate: 3205 MT/s
Warmup finished CPU 0 instructions: 5000003 cycles: 1752015 cumulative IPC: 2.854 (Simulation time: 00 hr 00 min 21 sec)
Warmup complete CPU 0 instructions: 5000003 cycles: 1752015 cumulative IPC: 2.854 (Simulation time: 00 hr 00 min 21 sec)
Heartbeat CPU 0 instructions: 10000002 cycles: 21322270 heartbeat IPC: 0.469 cumulative IPC: 0.2555 (Simulation time: 00 hr 01 min 49 sec)
Heartbeat CPU 0 instructions: 20000002 cycles: 61261617 heartbeat IPC: 0.2504 cumulative IPC: 0.2521 (Simulation time: 00 hr 04 min 46 sec)
Heartbeat CPU 0 instructions: 30000004 cycles: 100856129 heartbeat IPC: 0.2526 cumulative IPC: 0.2523 (Simulation time: 00 hr 07 min 38 sec)
Simulation finished CPU 0 instructions: 25000001 cycles: 99104114 cumulative IPC: 0.2523 (Simulation time: 00 hr 07 min 38 sec)
Simulation complete CPU 0 instructions: 25000001 cycles: 99104114 cumulative IPC: 0.2523 (Simulation time: 00 hr 07 min 38 sec)

ChampSim completed all CPUs

=== Simulation ===
CPU 0 runs ../../hw2/traces/602.gcc_s-1850B.champsimtrace.xz

Region of Interest Statistics

CPU 0 cumulative IPC: 0.2523 instructions: 25000001 cycles: 99104114
CPU 0 Branch Prediction Accuracy: 92.26% MPKI: 19.85 Average ROB Occupancy at Mispredict: 28.66
Branch type MPKI
BRANCH_DIRECT_JUMP: 0.01196
BRANCH_INDIRECT: 0
BRANCH_CONDITIONAL: 19.84
BRANCH_DIRECT_CALL: 0
BRANCH_INDIRECT_CALL: 0
BRANCH_RETURN: 0

cpu0->cpu0_STLB TOTAL        ACCESS:       8292 HIT:        656 MISS:       7636 MSHR_MERGE:          0
cpu0->cpu0_STLB LOAD         ACCESS:       8292 HIT:        656 MISS:       7636 MSHR_MERGE:          0
cpu0->cpu0_STLB RFO          ACCESS:          0 HIT:          0 MISS:          0 MSHR_MERGE:          0
cpu0->cpu0_STLB PREFETCH     ACCESS:          0 HIT:          0 MISS:          0 MSHR_MERGE:          0
cpu0->cpu0_STLB WRITE        ACCESS:          0 HIT:          0 MISS:          0 MSHR_MERGE:          0
cpu0->cpu0_STLB TRANSLATION  ACCESS:          0 HIT:          0 MISS:          0 MSHR_MERGE:          0
cpu0->cpu0_STLB PREFETCH REQUESTED:          0 ISSUED:          0 USEFUL:          0 USELESS:          0
cpu0->cpu0_STLB AVERAGE MISS LATENCY: 677 cycles
cpu0->cpu0_L2C TOTAL        ACCESS:     615130 HIT:     160782 MISS:     454348 MSHR_MERGE:          0
cpu0->cpu0_L2C LOAD         ACCESS:     603936 HIT:     158916 MISS:     445020 MSHR_MERGE:          0
cpu0->cpu0_L2C RFO          ACCESS:        158 HIT:          0 MISS:        158 MSHR_MERGE:          0
cpu0->cpu0_L2C PREFETCH     ACCESS:          0 HIT:          0 MISS:          0 MSHR_MERGE:          0
cpu0->cpu0_L2C WRITE        ACCESS:       1588 HIT:       1588 MISS:          0 MSHR_MERGE:          0
cpu0->cpu0_L2C TRANSLATION  ACCESS:       9448 HIT:        278 MISS:       9170 MSHR_MERGE:          0
cpu0->cpu0_L2C PREFETCH REQUESTED:          0 ISSUED:          0 USEFUL:          0 USELESS:          0
cpu0->cpu0_L2C AVERAGE MISS LATENCY: 159.7 cycles
cpu0->cpu0_L1I TOTAL        ACCESS:        320 HIT:        320 MISS:          0 MSHR_MERGE:          0
cpu0->cpu0_L1I LOAD         ACCESS:        320 HIT:        320 MISS:          0 MSHR_MERGE:          0
cpu0->cpu0_L1I RFO          ACCESS:          0 HIT:          0 MISS:          0 MSHR_MERGE:          0
cpu0->cpu0_L1I PREFETCH     ACCESS:          0 HIT:          0 MISS:          0 MSHR_MERGE:          0
cpu0->cpu0_L1I WRITE        ACCESS:          0 HIT:          0 MISS:          0 MSHR_MERGE:          0
cpu0->cpu0_L1I TRANSLATION  ACCESS:          0 HIT:          0 MISS:          0 MSHR_MERGE:          0
cpu0->cpu0_L1I PREFETCH REQUESTED:          0 ISSUED:          0 USEFUL:          0 USELESS:          0
cpu0->cpu0_L1I AVERAGE MISS LATENCY: - cycles
cpu0->cpu0_L1D TOTAL        ACCESS:    7476329 HIT:    6418465 MISS:    1057864 MSHR_MERGE:     444322
cpu0->cpu0_L1D LOAD         ACCESS:    5303447 HIT:    4255189 MISS:    1048258 MSHR_MERGE:     444322
cpu0->cpu0_L1D RFO          ACCESS:          0 HIT:          0 MISS:          0 MSHR_MERGE:          0
cpu0->cpu0_L1D PREFETCH     ACCESS:          0 HIT:          0 MISS:          0 MSHR_MERGE:          0
cpu0->cpu0_L1D WRITE        ACCESS:    2157534 HIT:    2157376 MISS:        158 MSHR_MERGE:          0
cpu0->cpu0_L1D TRANSLATION  ACCESS:      15348 HIT:       5900 MISS:       9448 MSHR_MERGE:          0
cpu0->cpu0_L1D PREFETCH REQUESTED:          0 ISSUED:          0 USEFUL:          0 USELESS:          0
cpu0->cpu0_L1D AVERAGE MISS LATENCY: 127 cycles
cpu0->cpu0_ITLB TOTAL        ACCESS:        241 HIT:        241 MISS:          0 MSHR_MERGE:          0
cpu0->cpu0_ITLB LOAD         ACCESS:        241 HIT:        241 MISS:          0 MSHR_MERGE:          0
cpu0->cpu0_ITLB RFO          ACCESS:          0 HIT:          0 MISS:          0 MSHR_MERGE:          0
cpu0->cpu0_ITLB PREFETCH     ACCESS:          0 HIT:          0 MISS:          0 MSHR_MERGE:          0
cpu0->cpu0_ITLB WRITE        ACCESS:          0 HIT:          0 MISS:          0 MSHR_MERGE:          0
cpu0->cpu0_ITLB TRANSLATION  ACCESS:          0 HIT:          0 MISS:          0 MSHR_MERGE:          0
cpu0->cpu0_ITLB PREFETCH REQUESTED:          0 ISSUED:          0 USEFUL:          0 USELESS:          0
cpu0->cpu0_ITLB AVERAGE MISS LATENCY: - cycles
cpu0->cpu0_DTLB TOTAL        ACCESS:    7266652 HIT:    7250988 MISS:      15664 MSHR_MERGE:       7372
cpu0->cpu0_DTLB LOAD         ACCESS:    7266652 HIT:    7250988 MISS:      15664 MSHR_MERGE:       7372
cpu0->cpu0_DTLB RFO          ACCESS:          0 HIT:          0 MISS:          0 MSHR_MERGE:          0
cpu0->cpu0_DTLB PREFETCH     ACCESS:          0 HIT:          0 MISS:          0 MSHR_MERGE:          0
cpu0->cpu0_DTLB WRITE        ACCESS:          0 HIT:          0 MISS:          0 MSHR_MERGE:          0
cpu0->cpu0_DTLB TRANSLATION  ACCESS:          0 HIT:          0 MISS:          0 MSHR_MERGE:          0
cpu0->cpu0_DTLB PREFETCH REQUESTED:          0 ISSUED:          0 USEFUL:          0 USELESS:          0
cpu0->cpu0_DTLB AVERAGE MISS LATENCY: 629.3 cycles
cpu0->LLC TOTAL        ACCESS:     455010 HIT:       1325 MISS:     453685 MSHR_MERGE:          0
cpu0->LLC LOAD         ACCESS:     445020 HIT:        623 MISS:     444397 MSHR_MERGE:          0
cpu0->LLC RFO          ACCESS:        158 HIT:          0 MISS:        158 MSHR_MERGE:          0
cpu0->LLC PREFETCH     ACCESS:          0 HIT:          0 MISS:          0 MSHR_MERGE:          0
cpu0->LLC WRITE        ACCESS:        662 HIT:        661 MISS:          1 MSHR_MERGE:          0
cpu0->LLC TRANSLATION  ACCESS:       9170 HIT:         41 MISS:       9129 MSHR_MERGE:          0
cpu0->LLC PREFETCH REQUESTED:          0 ISSUED:          0 USEFUL:          0 USELESS:          0
cpu0->LLC AVERAGE MISS LATENCY: 144 cycles

DRAM Statistics

Channel 0 RQ ROW_BUFFER_HIT:     114021
  ROW_BUFFER_MISS:     339664
  AVG DBUS CONGESTED CYCLE: 21.76
Channel 0 WQ ROW_BUFFER_HIT:        199
  ROW_BUFFER_MISS:        463
  FULL:          0
Channel 0 REFRESHES ISSUED:       8258
