[VMEM] WARNING: physical memory size is smaller than virtual memory size.

*** ChampSim Multicore Out-of-Order Simulator ***
Warmup Instructions: 5000000
Simulation Instructions: 25000000
Number of CPUs: 1
Page size: 4096

Off-chip DRAM Size: 16 GiB Channels: 1 Width: 64-bit Data Rate: 3205 MT/s
Warmup finished CPU 0 instructions: 5000003 cycles: 1406444 cumulative IPC: 3.555 (Simulation time: 00 hr 00 min 21 sec)
Warmup complete CPU 0 instructions: 5000003 cycles: 1406444 cumulative IPC: 3.555 (Simulation time: 00 hr 00 min 21 sec)
Heartbeat CPU 0 instructions: 10000004 cycles: 7068895 heartbeat IPC: 1.415 cumulative IPC: 0.883 (Simulation time: 00 hr 01 min 05 sec)
Heartbeat CPU 0 instructions: 20000004 cycles: 18350714 heartbeat IPC: 0.8864 cumulative IPC: 0.8853 (Simulation time: 00 hr 02 min 33 sec)
Heartbeat CPU 0 instructions: 30000005 cycles: 29609926 heartbeat IPC: 0.8882 cumulative IPC: 0.8864 (Simulation time: 00 hr 04 min 00 sec)
Simulation finished CPU 0 instructions: 25000002 cycles: 28203482 cumulative IPC: 0.8864 (Simulation time: 00 hr 04 min 00 sec)
Simulation complete CPU 0 instructions: 25000002 cycles: 28203482 cumulative IPC: 0.8864 (Simulation time: 00 hr 04 min 00 sec)

ChampSim completed all CPUs

=== Simulation ===
CPU 0 runs ../../hw2/traces/603.bwaves_s-2931B.champsimtrace.xz

Region of Interest Statistics

CPU 0 cumulative IPC: 0.8864 instructions: 25000002 cycles: 28203482
CPU 0 Branch Prediction Accuracy: 80.62% MPKI: 1.636 Average ROB Occupancy at Mispredict: 300.2
Branch type MPKI
BRANCH_DIRECT_JUMP: 0
BRANCH_INDIRECT: 0
BRANCH_CONDITIONAL: 1.636
BRANCH_DIRECT_CALL: 0
BRANCH_INDIRECT_CALL: 0
BRANCH_RETURN: 0

cpu0->cpu0_STLB TOTAL        ACCESS:      43361 HIT:      38029 MISS:       5332 MSHR_MERGE:          0
cpu0->cpu0_STLB LOAD         ACCESS:      43361 HIT:      38029 MISS:       5332 MSHR_MERGE:          0
cpu0->cpu0_STLB RFO          ACCESS:          0 HIT:          0 MISS:          0 MSHR_MERGE:          0
cpu0->cpu0_STLB PREFETCH     ACCESS:          0 HIT:          0 MISS:          0 MSHR_MERGE:          0
cpu0->cpu0_STLB WRITE        ACCESS:          0 HIT:          0 MISS:          0 MSHR_MERGE:          0
cpu0->cpu0_STLB TRANSLATION  ACCESS:          0 HIT:          0 MISS:          0 MSHR_MERGE:          0
cpu0->cpu0_STLB PREFETCH REQUESTED:          0 ISSUED:          0 USEFUL:          0 USELESS:          0
cpu0->cpu0_STLB AVERAGE MISS LATENCY: 704.5 cycles
cpu0->cpu0_L2C TOTAL        ACCESS:     586841 HIT:     212708 MISS:     374133 MSHR_MERGE:          0
cpu0->cpu0_L2C LOAD         ACCESS:     259403 HIT:      40270 MISS:     219133 MSHR_MERGE:          0
cpu0->cpu0_L2C RFO          ACCESS:     157447 HIT:       8606 MISS:     148841 MSHR_MERGE:          0
cpu0->cpu0_L2C PREFETCH     ACCESS:          0 HIT:          0 MISS:          0 MSHR_MERGE:          0
cpu0->cpu0_L2C WRITE        ACCESS:     159356 HIT:     159350 MISS:          6 MSHR_MERGE:          0
cpu0->cpu0_L2C TRANSLATION  ACCESS:      10635 HIT:       4482 MISS:       6153 MSHR_MERGE:          0
cpu0->cpu0_L2C PREFETCH REQUESTED:          0 ISSUED:          0 USEFUL:          0 USELESS:          0
cpu0->cpu0_L2C AVERAGE MISS LATENCY: 224.1 cycles
cpu0->cpu0_L1I TOTAL        ACCESS:    2834390 HIT:    2834382 MISS:          8 MSHR_MERGE:          1
cpu0->cpu0_L1I LOAD         ACCESS:    2834390 HIT:    2834382 MISS:          8 MSHR_MERGE:          1
cpu0->cpu0_L1I RFO          ACCESS:          0 HIT:          0 MISS:          0 MSHR_MERGE:          0
cpu0->cpu0_L1I PREFETCH     ACCESS:          0 HIT:          0 MISS:          0 MSHR_MERGE:          0
cpu0->cpu0_L1I WRITE        ACCESS:          0 HIT:          0 MISS:          0 MSHR_MERGE:          0
cpu0->cpu0_L1I TRANSLATION  ACCESS:          0 HIT:          0 MISS:          0 MSHR_MERGE:          0
cpu0->cpu0_L1I PREFETCH REQUESTED:          0 ISSUED:          0 USEFUL:          0 USELESS:          0
cpu0->cpu0_L1I AVERAGE MISS LATENCY: 229.4 cycles
cpu0->cpu0_L1D TOTAL        ACCESS:    8285324 HIT:    7476291 MISS:     809033 MSHR_MERGE:     381418
cpu0->cpu0_L1D LOAD         ACCESS:    3701627 HIT:    3439838 MISS:     261789 MSHR_MERGE:       2393
cpu0->cpu0_L1D RFO          ACCESS:          0 HIT:          0 MISS:          0 MSHR_MERGE:          0
cpu0->cpu0_L1D PREFETCH     ACCESS:          0 HIT:          0 MISS:          0 MSHR_MERGE:          0
cpu0->cpu0_L1D WRITE        ACCESS:    4573016 HIT:    4036407 MISS:     536609 MSHR_MERGE:     379025
cpu0->cpu0_L1D TRANSLATION  ACCESS:      10681 HIT:         46 MISS:      10635 MSHR_MERGE:          0
cpu0->cpu0_L1D PREFETCH REQUESTED:          0 ISSUED:          0 USEFUL:          0 USELESS:          0
cpu0->cpu0_L1D AVERAGE MISS LATENCY: 205 cycles
cpu0->cpu0_ITLB TOTAL        ACCESS:    2266349 HIT:    2266349 MISS:          0 MSHR_MERGE:          0
cpu0->cpu0_ITLB LOAD         ACCESS:    2266349 HIT:    2266349 MISS:          0 MSHR_MERGE:          0
cpu0->cpu0_ITLB RFO          ACCESS:          0 HIT:          0 MISS:          0 MSHR_MERGE:          0
cpu0->cpu0_ITLB PREFETCH     ACCESS:          0 HIT:          0 MISS:          0 MSHR_MERGE:          0
cpu0->cpu0_ITLB WRITE        ACCESS:          0 HIT:          0 MISS:          0 MSHR_MERGE:          0
cpu0->cpu0_ITLB TRANSLATION  ACCESS:          0 HIT:          0 MISS:          0 MSHR_MERGE:          0
cpu0->cpu0_ITLB PREFETCH REQUESTED:          0 ISSUED:          0 USEFUL:          0 USELESS:          0
cpu0->cpu0_ITLB AVERAGE MISS LATENCY: - cycles
cpu0->cpu0_DTLB TOTAL        ACCESS:    7591026 HIT:    7542444 MISS:      48582 MSHR_MERGE:       5221
cpu0->cpu0_DTLB LOAD         ACCESS:    7591026 HIT:    7542444 MISS:      48582 MSHR_MERGE:       5221
cpu0->cpu0_DTLB RFO          ACCESS:          0 HIT:          0 MISS:          0 MSHR_MERGE:          0
cpu0->cpu0_DTLB PREFETCH     ACCESS:          0 HIT:          0 MISS:          0 MSHR_MERGE:          0
cpu0->cpu0_DTLB WRITE        ACCESS:          0 HIT:          0 MISS:          0 MSHR_MERGE:          0
cpu0->cpu0_DTLB TRANSLATION  ACCESS:          0 HIT:          0 MISS:          0 MSHR_MERGE:          0
cpu0->cpu0_DTLB PREFETCH REQUESTED:          0 ISSUED:          0 USEFUL:          0 USELESS:          0
cpu0->cpu0_DTLB AVERAGE MISS LATENCY: 91.76 cycles
cpu0->LLC TOTAL        ACCESS:     523058 HIT:     175645 MISS:     347413 MSHR_MERGE:          0
cpu0->LLC LOAD         ACCESS:     219133 HIT:      26718 MISS:     192415 MSHR_MERGE:          0
cpu0->LLC RFO          ACCESS:     148841 HIT:          0 MISS:     148841 MSHR_MERGE:          0
cpu0->LLC PREFETCH     ACCESS:          0 HIT:          0 MISS:          0 MSHR_MERGE:          0
cpu0->LLC WRITE        ACCESS:     148931 HIT:     148927 MISS:          4 MSHR_MERGE:          0
cpu0->LLC TRANSLATION  ACCESS:       6153 HIT:          0 MISS:       6153 MSHR_MERGE:          0
cpu0->LLC PREFETCH REQUESTED:          0 ISSUED:          0 USEFUL:          0 USELESS:          0
cpu0->LLC AVERAGE MISS LATENCY: 224.1 cycles

DRAM Statistics

Channel 0 RQ ROW_BUFFER_HIT:          7
  ROW_BUFFER_MISS:     347400
  AVG DBUS CONGESTED CYCLE: 11.23
Channel 0 WQ ROW_BUFFER_HIT:      51851
  ROW_BUFFER_MISS:      97592
  FULL:          0
Channel 0 REFRESHES ISSUED:       2350
