[VMEM] WARNING: physical memory size is smaller than virtual memory size.

*** ChampSim Multicore Out-of-Order Simulator ***
Warmup Instructions: 5000000
Simulation Instructions: 25000000
Number of CPUs: 1
Page size: 4096

Off-chip DRAM Size: 16 GiB Channels: 1 Width: 64-bit Data Rate: 3205 MT/s
Warmup finished CPU 0 instructions: 5000001 cycles: 2093685 cumulative IPC: 2.388 (Simulation time: 00 hr 00 min 24 sec)
Warmup complete CPU 0 instructions: 5000001 cycles: 2093685 cumulative IPC: 2.388 (Simulation time: 00 hr 00 min 24 sec)
Heartbeat CPU 0 instructions: 10000001 cycles: 23392747 heartbeat IPC: 0.4275 cumulative IPC: 0.2348 (Simulation time: 00 hr 03 min 16 sec)
Heartbeat CPU 0 instructions: 20000002 cycles: 64880947 heartbeat IPC: 0.241 cumulative IPC: 0.2389 (Simulation time: 00 hr 08 min 44 sec)
Heartbeat CPU 0 instructions: 30000002 cycles: 106128182 heartbeat IPC: 0.2424 cumulative IPC: 0.2403 (Simulation time: 00 hr 13 min 02 sec)
Simulation finished CPU 0 instructions: 25000001 cycles: 104034497 cumulative IPC: 0.2403 (Simulation time: 00 hr 13 min 02 sec)
Simulation complete CPU 0 instructions: 25000001 cycles: 104034497 cumulative IPC: 0.2403 (Simulation time: 00 hr 13 min 02 sec)

ChampSim completed all CPUs

=== Simulation ===
CPU 0 runs ../../hw2/traces/605.mcf_s-1536B.champsimtrace.xz

Region of Interest Statistics

CPU 0 cumulative IPC: 0.2403 instructions: 25000001 cycles: 104034497
CPU 0 Branch Prediction Accuracy: 99.98% MPKI: 0.03768 Average ROB Occupancy at Mispredict: 190.6
Branch type MPKI
BRANCH_DIRECT_JUMP: 0
BRANCH_INDIRECT: 0
BRANCH_CONDITIONAL: 0.03768
BRANCH_DIRECT_CALL: 0
BRANCH_INDIRECT_CALL: 0
BRANCH_RETURN: 0

cpu0->cpu0_STLB TOTAL        ACCESS:     691033 HIT:     130033 MISS:     561000 MSHR_MERGE:          0
cpu0->cpu0_STLB LOAD         ACCESS:     691033 HIT:     130033 MISS:     561000 MSHR_MERGE:          0
cpu0->cpu0_STLB RFO          ACCESS:          0 HIT:          0 MISS:          0 MSHR_MERGE:          0
cpu0->cpu0_STLB PREFETCH     ACCESS:          0 HIT:          0 MISS:          0 MSHR_MERGE:          0
cpu0->cpu0_STLB WRITE        ACCESS:          0 HIT:          0 MISS:          0 MSHR_MERGE:          0
cpu0->cpu0_STLB TRANSLATION  ACCESS:          0 HIT:          0 MISS:          0 MSHR_MERGE:          0
cpu0->cpu0_STLB PREFETCH REQUESTED:          0 ISSUED:          0 USEFUL:          0 USELESS:          0
cpu0->cpu0_STLB AVERAGE MISS LATENCY: 84.45 cycles
cpu0->cpu0_L2C TOTAL        ACCESS:    2900093 HIT:    1220728 MISS:    1679365 MSHR_MERGE:          0
cpu0->cpu0_L2C LOAD         ACCESS:    1154512 HIT:     404081 MISS:     750431 MSHR_MERGE:          0
cpu0->cpu0_L2C RFO          ACCESS:      71355 HIT:      19192 MISS:      52163 MSHR_MERGE:          0
cpu0->cpu0_L2C PREFETCH     ACCESS:          0 HIT:          0 MISS:          0 MSHR_MERGE:          0
cpu0->cpu0_L2C WRITE        ACCESS:     556357 HIT:     556357 MISS:          0 MSHR_MERGE:          0
cpu0->cpu0_L2C TRANSLATION  ACCESS:    1117869 HIT:     241098 MISS:     876771 MSHR_MERGE:          0
cpu0->cpu0_L2C PREFETCH REQUESTED:          0 ISSUED:          0 USEFUL:          0 USELESS:          0
cpu0->cpu0_L2C AVERAGE MISS LATENCY: 108.5 cycles
cpu0->cpu0_L1I TOTAL        ACCESS:    5555281 HIT:    5555281 MISS:          0 MSHR_MERGE:          0
cpu0->cpu0_L1I LOAD         ACCESS:    5555281 HIT:    5555281 MISS:          0 MSHR_MERGE:          0
cpu0->cpu0_L1I RFO          ACCESS:          0 HIT:          0 MISS:          0 MSHR_MERGE:          0
cpu0->cpu0_L1I PREFETCH     ACCESS:          0 HIT:          0 MISS:          0 MSHR_MERGE:          0
cpu0->cpu0_L1I WRITE        ACCESS:          0 HIT:          0 MISS:          0 MSHR_MERGE:          0
cpu0->cpu0_L1I TRANSLATION  ACCESS:          0 HIT:          0 MISS:          0 MSHR_MERGE:          0
cpu0->cpu0_L1I PREFETCH REQUESTED:          0 ISSUED:          0 USEFUL:          0 USELESS:          0
cpu0->cpu0_L1I AVERAGE MISS LATENCY: - cycles
cpu0->cpu0_L1D TOTAL        ACCESS:    7303220 HIT:    4116941 MISS:    3186279 MSHR_MERGE:     842538
cpu0->cpu0_L1D LOAD         ACCESS:    4986879 HIT:    3001129 MISS:    1985750 MSHR_MERGE:     831238
cpu0->cpu0_L1D RFO          ACCESS:          0 HIT:          0 MISS:          0 MSHR_MERGE:          0
cpu0->cpu0_L1D PREFETCH     ACCESS:          0 HIT:          0 MISS:          0 MSHR_MERGE:          0
cpu0->cpu0_L1D WRITE        ACCESS:    1108563 HIT:    1037189 MISS:      71374 MSHR_MERGE:         14
cpu0->cpu0_L1D TRANSLATION  ACCESS:    1207778 HIT:      78623 MISS:    1129155 MSHR_MERGE:      11286
cpu0->cpu0_L1D PREFETCH REQUESTED:          0 ISSUED:          0 USEFUL:          0 USELESS:          0
cpu0->cpu0_L1D AVERAGE MISS LATENCY: 86.59 cycles
cpu0->cpu0_ITLB TOTAL        ACCESS:    4977750 HIT:    4977750 MISS:          0 MSHR_MERGE:          0
cpu0->cpu0_ITLB LOAD         ACCESS:    4977750 HIT:    4977750 MISS:          0 MSHR_MERGE:          0
cpu0->cpu0_ITLB RFO          ACCESS:          0 HIT:          0 MISS:          0 MSHR_MERGE:          0
cpu0->cpu0_ITLB PREFETCH     ACCESS:          0 HIT:          0 MISS:          0 MSHR_MERGE:          0
cpu0->cpu0_ITLB WRITE        ACCESS:          0 HIT:          0 MISS:          0 MSHR_MERGE:          0
cpu0->cpu0_ITLB TRANSLATION  ACCESS:          0 HIT:          0 MISS:          0 MSHR_MERGE:          0
cpu0->cpu0_ITLB PREFETCH REQUESTED:          0 ISSUED:          0 USEFUL:          0 USELESS:          0
cpu0->cpu0_ITLB AVERAGE MISS LATENCY: - cycles
cpu0->cpu0_DTLB TOTAL        ACCESS:    6050118 HIT:    4360160 MISS:    1689958 MSHR_MERGE:     998925
cpu0->cpu0_DTLB LOAD         ACCESS:    6050118 HIT:    4360160 MISS:    1689958 MSHR_MERGE:     998925
cpu0->cpu0_DTLB RFO          ACCESS:          0 HIT:          0 MISS:          0 MSHR_MERGE:          0
cpu0->cpu0_DTLB PREFETCH     ACCESS:          0 HIT:          0 MISS:          0 MSHR_MERGE:          0
cpu0->cpu0_DTLB WRITE        ACCESS:          0 HIT:          0 MISS:          0 MSHR_MERGE:          0
cpu0->cpu0_DTLB TRANSLATION  ACCESS:          0 HIT:          0 MISS:          0 MSHR_MERGE:          0
cpu0->cpu0_DTLB PREFETCH REQUESTED:          0 ISSUED:          0 USEFUL:          0 USELESS:          0
cpu0->cpu0_DTLB AVERAGE MISS LATENCY: 74.37 cycles
cpu0->LLC TOTAL        ACCESS:    2233745 HIT:    1549807 MISS:     683938 MSHR_MERGE:          0
cpu0->LLC LOAD         ACCESS:     750431 HIT:     115668 MISS:     634763 MSHR_MERGE:          0
cpu0->LLC RFO          ACCESS:      52163 HIT:      52155 MISS:          8 MSHR_MERGE:          0
cpu0->LLC PREFETCH     ACCESS:          0 HIT:          0 MISS:          0 MSHR_MERGE:          0
cpu0->LLC WRITE        ACCESS:     554380 HIT:     554380 MISS:          0 MSHR_MERGE:          0
cpu0->LLC TRANSLATION  ACCESS:     876771 HIT:     827604 MISS:      49167 MSHR_MERGE:          0
cpu0->LLC PREFETCH REQUESTED:          0 ISSUED:          0 USEFUL:          0 USELESS:          0
cpu0->LLC AVERAGE MISS LATENCY: 228.6 cycles

DRAM Statistics

Channel 0 RQ ROW_BUFFER_HIT:        144
  ROW_BUFFER_MISS:     683793
  AVG DBUS CONGESTED CYCLE: 5.831
Channel 0 WQ ROW_BUFFER_HIT:     181694
  ROW_BUFFER_MISS:     372473
  FULL:          0
Channel 0 REFRESHES ISSUED:       8670
