[VMEM] WARNING: physical memory size is smaller than virtual memory size.

*** ChampSim Multicore Out-of-Order Simulator ***
Warmup Instructions: 5000000
Simulation Instructions: 25000000
Number of CPUs: 1
Page size: 4096

Off-chip DRAM Size: 16 GiB Channels: 1 Width: 64-bit Data Rate: 3205 MT/s
Warmup finished CPU 0 instructions: 5000004 cycles: 1498026 cumulative IPC: 3.338 (Simulation time: 00 hr 00 min 23 sec)
Warmup complete CPU 0 instructions: 5000004 cycles: 1498026 cumulative IPC: 3.338 (Simulation time: 00 hr 00 min 23 sec)
Heartbeat CPU 0 instructions: 10000002 cycles: 4419089 heartbeat IPC: 2.263 cumulative IPC: 1.712 (Simulation time: 00 hr 00 min 56 sec)
Heartbeat CPU 0 instructions: 20000002 cycles: 10532553 heartbeat IPC: 1.636 cumulative IPC: 1.66 (Simulation time: 00 hr 02 min 01 sec)
Heartbeat CPU 0 instructions: 30000006 cycles: 16643931 heartbeat IPC: 1.636 cumulative IPC: 1.651 (Simulation time: 00 hr 03 min 06 sec)
Simulation finished CPU 0 instructions: 25000002 cycles: 15145905 cumulative IPC: 1.651 (Simulation time: 00 hr 03 min 06 sec)
Simulation complete CPU 0 instructions: 25000002 cycles: 15145905 cumulative IPC: 1.651 (Simulation time: 00 hr 03 min 06 sec)

ChampSim completed all CPUs

=== Simulation ===
CPU 0 runs ../../hw2/traces/607.cactuBSSN_s-2421B.champsimtrace.xz

Region of Interest Statistics

CPU 0 cumulative IPC: 1.651 instructions: 25000002 cycles: 15145905
CPU 0 Branch Prediction Accuracy: 91.63% MPKI: 0.7521 Average ROB Occupancy at Mispredict: 330.7
Branch type MPKI
BRANCH_DIRECT_JUMP: 0.00132
BRANCH_INDIRECT: 8e-05
BRANCH_CONDITIONAL: 0.3843
BRANCH_DIRECT_CALL: 0.00156
BRANCH_INDIRECT_CALL: 0
BRANCH_RETURN: 0.3649

cpu0->cpu0_STLB TOTAL        ACCESS:     962160 HIT:     961133 MISS:       1027 MSHR_MERGE:          0
cpu0->cpu0_STLB LOAD         ACCESS:     962160 HIT:     961133 MISS:       1027 MSHR_MERGE:          0
cpu0->cpu0_STLB RFO          ACCESS:          0 HIT:          0 MISS:          0 MSHR_MERGE:          0
cpu0->cpu0_STLB PREFETCH     ACCESS:          0 HIT:          0 MISS:          0 MSHR_MERGE:          0
cpu0->cpu0_STLB WRITE        ACCESS:          0 HIT:          0 MISS:          0 MSHR_MERGE:          0
cpu0->cpu0_STLB TRANSLATION  ACCESS:          0 HIT:          0 MISS:          0 MSHR_MERGE:          0
cpu0->cpu0_STLB PREFETCH REQUESTED:          0 ISSUED:          0 USEFUL:          0 USELESS:          0
cpu0->cpu0_STLB AVERAGE MISS LATENCY: 816.5 cycles
cpu0->cpu0_L2C TOTAL        ACCESS:    2661158 HIT:    2521970 MISS:     139188 MSHR_MERGE:          0
cpu0->cpu0_L2C LOAD         ACCESS:    2335767 HIT:    2214676 MISS:     121091 MSHR_MERGE:          0
cpu0->cpu0_L2C RFO          ACCESS:     153305 HIT:     137720 MISS:      15585 MSHR_MERGE:          0
cpu0->cpu0_L2C PREFETCH     ACCESS:          0 HIT:          0 MISS:          0 MSHR_MERGE:          0
cpu0->cpu0_L2C WRITE        ACCESS:     169532 HIT:     169524 MISS:          8 MSHR_MERGE:          0
cpu0->cpu0_L2C TRANSLATION  ACCESS:       2554 HIT:         50 MISS:       2504 MSHR_MERGE:          0
cpu0->cpu0_L2C PREFETCH REQUESTED:          0 ISSUED:          0 USEFUL:          0 USELESS:          0
cpu0->cpu0_L2C AVERAGE MISS LATENCY: 122.2 cycles
cpu0->cpu0_L1I TOTAL        ACCESS:    5510547 HIT:    4226806 MISS:    1283741 MSHR_MERGE:     633634
cpu0->cpu0_L1I LOAD         ACCESS:    5510547 HIT:    4226806 MISS:    1283741 MSHR_MERGE:     633634
cpu0->cpu0_L1I RFO          ACCESS:          0 HIT:          0 MISS:          0 MSHR_MERGE:          0
cpu0->cpu0_L1I PREFETCH     ACCESS:          0 HIT:          0 MISS:          0 MSHR_MERGE:          0
cpu0->cpu0_L1I WRITE        ACCESS:          0 HIT:          0 MISS:          0 MSHR_MERGE:          0
cpu0->cpu0_L1I TRANSLATION  ACCESS:          0 HIT:          0 MISS:          0 MSHR_MERGE:          0
cpu0->cpu0_L1I PREFETCH REQUESTED:          0 ISSUED:          0 USEFUL:          0 USELESS:          0
cpu0->cpu0_L1I AVERAGE MISS LATENCY: 7.206 cycles
cpu0->cpu0_L1D TOTAL        ACCESS:    9622649 HIT:    7647838 MISS:    1974811 MSHR_MERGE:     133254
cpu0->cpu0_L1D LOAD         ACCESS:    7611383 HIT:    5810042 MISS:    1801341 MSHR_MERGE:     115652
cpu0->cpu0_L1D RFO          ACCESS:          0 HIT:          0 MISS:          0 MSHR_MERGE:          0
cpu0->cpu0_L1D PREFETCH     ACCESS:          0 HIT:          0 MISS:          0 MSHR_MERGE:          0
cpu0->cpu0_L1D WRITE        ACCESS:    2008694 HIT:    1837781 MISS:     170913 MSHR_MERGE:      17599
cpu0->cpu0_L1D TRANSLATION  ACCESS:       2572 HIT:         15 MISS:       2557 MSHR_MERGE:          3
cpu0->cpu0_L1D PREFETCH REQUESTED:          0 ISSUED:          0 USEFUL:          0 USELESS:          0
cpu0->cpu0_L1D AVERAGE MISS LATENCY: 18.29 cycles
cpu0->cpu0_ITLB TOTAL        ACCESS:    4391958 HIT:    4391943 MISS:         15 MSHR_MERGE:          5
cpu0->cpu0_ITLB LOAD         ACCESS:    4391958 HIT:    4391943 MISS:         15 MSHR_MERGE:          5
cpu0->cpu0_ITLB RFO          ACCESS:          0 HIT:          0 MISS:          0 MSHR_MERGE:          0
cpu0->cpu0_ITLB PREFETCH     ACCESS:          0 HIT:          0 MISS:          0 MSHR_MERGE:          0
cpu0->cpu0_ITLB WRITE        ACCESS:          0 HIT:          0 MISS:          0 MSHR_MERGE:          0
cpu0->cpu0_ITLB TRANSLATION  ACCESS:          0 HIT:          0 MISS:          0 MSHR_MERGE:          0
cpu0->cpu0_ITLB PREFETCH REQUESTED:          0 ISSUED:          0 USEFUL:          0 USELESS:          0
cpu0->cpu0_ITLB AVERAGE MISS LATENCY: 813 cycles
cpu0->cpu0_DTLB TOTAL        ACCESS:    9095221 HIT:    8026761 MISS:    1068460 MSHR_MERGE:     106310
cpu0->cpu0_DTLB LOAD         ACCESS:    9095221 HIT:    8026761 MISS:    1068460 MSHR_MERGE:     106310
cpu0->cpu0_DTLB RFO          ACCESS:          0 HIT:          0 MISS:          0 MSHR_MERGE:          0
cpu0->cpu0_DTLB PREFETCH     ACCESS:          0 HIT:          0 MISS:          0 MSHR_MERGE:          0
cpu0->cpu0_DTLB WRITE        ACCESS:          0 HIT:          0 MISS:          0 MSHR_MERGE:          0
cpu0->cpu0_DTLB TRANSLATION  ACCESS:          0 HIT:          0 MISS:          0 MSHR_MERGE:          0
cpu0->cpu0_DTLB PREFETCH REQUESTED:          0 ISSUED:          0 USEFUL:          0 USELESS:          0
cpu0->cpu0_DTLB AVERAGE MISS LATENCY: 5.909 cycles
cpu0->LLC TOTAL        ACCESS:     154688 HIT:      87228 MISS:      67460 MSHR_MERGE:          0
cpu0->LLC LOAD         ACCESS:     121091 HIT:      70006 MISS:      51085 MSHR_MERGE:          0
cpu0->LLC RFO          ACCESS:      15370 HIT:        630 MISS:      14740 MSHR_MERGE:          0
cpu0->LLC PREFETCH     ACCESS:          0 HIT:          0 MISS:          0 MSHR_MERGE:          0
cpu0->LLC WRITE        ACCESS:      15723 HIT:      15720 MISS:          3 MSHR_MERGE:          0
cpu0->LLC TRANSLATION  ACCESS:       2504 HIT:        872 MISS:       1632 MSHR_MERGE:          0
cpu0->LLC PREFETCH REQUESTED:          0 ISSUED:          0 USEFUL:          0 USELESS:          0
cpu0->LLC AVERAGE MISS LATENCY: 220.1 cycles

DRAM Statistics

Channel 0 RQ ROW_BUFFER_HIT:         66
  ROW_BUFFER_MISS:      67391
  AVG DBUS CONGESTED CYCLE: 10.36
Channel 0 WQ ROW_BUFFER_HIT:        802
  ROW_BUFFER_MISS:      10633
  FULL:          0
Channel 0 REFRESHES ISSUED:       1262
