[VMEM] WARNING: physical memory size is smaller than virtual memory size.

*** ChampSim Multicore Out-of-Order Simulator ***
Warmup Instructions: 5000000
Simulation Instructions: 25000000
Number of CPUs: 1
Page size: 4096

Off-chip DRAM Size: 16 GiB Channels: 1 Width: 64-bit Data Rate: 3205 MT/s
Warmup finished CPU 0 instructions: 5000001 cycles: 1775748 cumulative IPC: 2.816 (Simulation time: 00 hr 00 min 22 sec)
Warmup complete CPU 0 instructions: 5000001 cycles: 1775748 cumulative IPC: 2.816 (Simulation time: 00 hr 00 min 22 sec)
Heartbeat CPU 0 instructions: 10000001 cycles: 12696983 heartbeat IPC: 0.7876 cumulative IPC: 0.4578 (Simulation time: 00 hr 02 min 03 sec)
Heartbeat CPU 0 instructions: 20000001 cycles: 34024216 heartbeat IPC: 0.4689 cumulative IPC: 0.4651 (Simulation time: 00 hr 05 min 19 sec)
Heartbeat CPU 0 instructions: 30000003 cycles: 55008018 heartbeat IPC: 0.4766 cumulative IPC: 0.4696 (Simulation time: 00 hr 08 min 27 sec)
Simulation finished CPU 0 instructions: 25000002 cycles: 53232270 cumulative IPC: 0.4696 (Simulation time: 00 hr 08 min 27 sec)
Simulation complete CPU 0 instructions: 25000002 cycles: 53232270 cumulative IPC: 0.4696 (Simulation time: 00 hr 08 min 27 sec)

ChampSim completed all CPUs

=== Simulation ===
CPU 0 runs ../../hw2/traces/619.lbm_s-2676B.champsimtrace.xz

Region of Interest Statistics

CPU 0 cumulative IPC: 0.4696 instructions: 25000002 cycles: 53232270
CPU 0 Branch Prediction Accuracy: 95.63% MPKI: 0.7376 Average ROB Occupancy at Mispredict: 213.2
Branch type MPKI
BRANCH_DIRECT_JUMP: 0
BRANCH_INDIRECT: 0
BRANCH_CONDITIONAL: 0.7376
BRANCH_DIRECT_CALL: 0
BRANCH_INDIRECT_CALL: 0
BRANCH_RETURN: 0

cpu0->cpu0_STLB TOTAL        ACCESS:      31491 HIT:      14402 MISS:      17089 MSHR_MERGE:          0
cpu0->cpu0_STLB LOAD         ACCESS:      31491 HIT:      14402 MISS:      17089 MSHR_MERGE:          0
cpu0->cpu0_STLB RFO          ACCESS:          0 HIT:          0 MISS:          0 MSHR_MERGE:          0
cpu0->cpu0_STLB PREFETCH     ACCESS:          0 HIT:          0 MISS:          0 MSHR_MERGE:          0
cpu0->cpu0_STLB WRITE        ACCESS:          0 HIT:          0 MISS:          0 MSHR_MERGE:          0
cpu0->cpu0_STLB TRANSLATION  ACCESS:          0 HIT:          0 MISS:          0 MSHR_MERGE:          0
cpu0->cpu0_STLB PREFETCH REQUESTED:          0 ISSUED:          0 USEFUL:          0 USELESS:          0
cpu0->cpu0_STLB AVERAGE MISS LATENCY: 948.7 cycles
cpu0->cpu0_L2C TOTAL        ACCESS:    3375801 HIT:    2236262 MISS:    1139539 MSHR_MERGE:          0
cpu0->cpu0_L2C LOAD         ACCESS:     273386 HIT:         16 MISS:     273370 MSHR_MERGE:          0
cpu0->cpu0_L2C RFO          ACCESS:    1541568 HIT:     694643 MISS:     846925 MSHR_MERGE:          0
cpu0->cpu0_L2C PREFETCH     ACCESS:          0 HIT:          0 MISS:          0 MSHR_MERGE:          0
cpu0->cpu0_L2C WRITE        ACCESS:    1541603 HIT:    1541603 MISS:          0 MSHR_MERGE:          0
cpu0->cpu0_L2C TRANSLATION  ACCESS:      19244 HIT:          0 MISS:      19244 MSHR_MERGE:          0
cpu0->cpu0_L2C PREFETCH REQUESTED:          0 ISSUED:          0 USEFUL:          0 USELESS:          0
cpu0->cpu0_L2C AVERAGE MISS LATENCY: 483.1 cycles
cpu0->cpu0_L1I TOTAL        ACCESS:    3961856 HIT:    3961856 MISS:          0 MSHR_MERGE:          0
cpu0->cpu0_L1I LOAD         ACCESS:    3961856 HIT:    3961856 MISS:          0 MSHR_MERGE:          0
cpu0->cpu0_L1I RFO          ACCESS:          0 HIT:          0 MISS:          0 MSHR_MERGE:          0
cpu0->cpu0_L1I PREFETCH     ACCESS:          0 HIT:          0 MISS:          0 MSHR_MERGE:          0
cpu0->cpu0_L1I WRITE        ACCESS:          0 HIT:          0 MISS:          0 MSHR_MERGE:          0
cpu0->cpu0_L1I TRANSLATION  ACCESS:          0 HIT:          0 MISS:          0 MSHR_MERGE:          0
cpu0->cpu0_L1I PREFETCH REQUESTED:          0 ISSUED:          0 USEFUL:          0 USELESS:          0
cpu0->cpu0_L1I AVERAGE MISS LATENCY: - cycles
cpu0->cpu0_L1D TOTAL        ACCESS:    6050258 HIT:    3793634 MISS:    2256624 MSHR_MERGE:     422395
cpu0->cpu0_L1D LOAD         ACCESS:    1560425 HIT:     937309 MISS:     623116 MSHR_MERGE:     349730
cpu0->cpu0_L1D RFO          ACCESS:          0 HIT:          0 MISS:          0 MSHR_MERGE:          0
cpu0->cpu0_L1D PREFETCH     ACCESS:          0 HIT:          0 MISS:          0 MSHR_MERGE:          0
cpu0->cpu0_L1D WRITE        ACCESS:    4455637 HIT:    2841373 MISS:    1614264 MSHR_MERGE:      72665
cpu0->cpu0_L1D TRANSLATION  ACCESS:      34196 HIT:      14952 MISS:      19244 MSHR_MERGE:          0
cpu0->cpu0_L1D PREFETCH REQUESTED:          0 ISSUED:          0 USEFUL:          0 USELESS:          0
cpu0->cpu0_L1D AVERAGE MISS LATENCY: 309.7 cycles
cpu0->cpu0_ITLB TOTAL        ACCESS:    2942324 HIT:    2942324 MISS:          0 MSHR_MERGE:          0
cpu0->cpu0_ITLB LOAD         ACCESS:    2942324 HIT:    2942324 MISS:          0 MSHR_MERGE:          0
cpu0->cpu0_ITLB RFO          ACCESS:          0 HIT:          0 MISS:          0 MSHR_MERGE:          0
cpu0->cpu0_ITLB PREFETCH     ACCESS:          0 HIT:          0 MISS:          0 MSHR_MERGE:          0
cpu0->cpu0_ITLB WRITE        ACCESS:          0 HIT:          0 MISS:          0 MSHR_MERGE:          0
cpu0->cpu0_ITLB TRANSLATION  ACCESS:          0 HIT:          0 MISS:          0 MSHR_MERGE:          0
cpu0->cpu0_ITLB PREFETCH REQUESTED:          0 ISSUED:          0 USEFUL:          0 USELESS:          0
cpu0->cpu0_ITLB AVERAGE MISS LATENCY: - cycles
cpu0->cpu0_DTLB TOTAL        ACCESS:    5665890 HIT:    5570428 MISS:      95462 MSHR_MERGE:      63971
cpu0->cpu0_DTLB LOAD         ACCESS:    5665890 HIT:    5570428 MISS:      95462 MSHR_MERGE:      63971
cpu0->cpu0_DTLB RFO          ACCESS:          0 HIT:          0 MISS:          0 MSHR_MERGE:          0
cpu0->cpu0_DTLB PREFETCH     ACCESS:          0 HIT:          0 MISS:          0 MSHR_MERGE:          0
cpu0->cpu0_DTLB WRITE        ACCESS:          0 HIT:          0 MISS:          0 MSHR_MERGE:          0
cpu0->cpu0_DTLB TRANSLATION  ACCESS:          0 HIT:          0 MISS:          0 MSHR_MERGE:          0
cpu0->cpu0_DTLB PREFETCH REQUESTED:          0 ISSUED:          0 USEFUL:          0 USELESS:          0
cpu0->cpu0_DTLB AVERAGE MISS LATENCY: 520.4 cycles
cpu0->LLC TOTAL        ACCESS:    1986569 HIT:     873945 MISS:    1112624 MSHR_MERGE:          0
cpu0->LLC LOAD         ACCESS:     273370 HIT:          7 MISS:     273363 MSHR_MERGE:          0
cpu0->LLC RFO          ACCESS:     846923 HIT:      26908 MISS:     820015 MSHR_MERGE:          0
cpu0->LLC PREFETCH     ACCESS:          0 HIT:          0 MISS:          0 MSHR_MERGE:          0
cpu0->LLC WRITE        ACCESS:     847032 HIT:     847030 MISS:          2 MSHR_MERGE:          0
cpu0->LLC TRANSLATION  ACCESS:      19244 HIT:          0 MISS:      19244 MSHR_MERGE:          0
cpu0->LLC PREFETCH REQUESTED:          0 ISSUED:          0 USEFUL:          0 USELESS:          0
cpu0->LLC AVERAGE MISS LATENCY: 478.3 cycles

DRAM Statistics

Channel 0 RQ ROW_BUFFER_HIT:      57717
  ROW_BUFFER_MISS:    1054905
  AVG DBUS CONGESTED CYCLE: 7.202
Channel 0 WQ ROW_BUFFER_HIT:     131272
  ROW_BUFFER_MISS:     688868
  FULL:          0
Channel 0 REFRESHES ISSUED:       4437
