[VMEM] WARNING: physical memory size is smaller than virtual memory size.

*** ChampSim Multicore Out-of-Order Simulator ***
Warmup Instructions: 5000000
Simulation Instructions: 25000000
Number of CPUs: 1
Page size: 4096

Off-chip DRAM Size: 16 GiB Channels: 1 Width: 64-bit Data Rate: 3205 MT/s
Warmup finished CPU 0 instructions: 5000003 cycles: 3493309 cumulative IPC: 1.431 (Simulation time: 00 hr 00 min 38 sec)
Warmup complete CPU 0 instructions: 5000003 cycles: 3493309 cumulative IPC: 1.431 (Simulation time: 00 hr 00 min 38 sec)
Heartbeat CPU 0 instructions: 10000004 cycles: 21856816 heartbeat IPC: 0.4575 cumulative IPC: 0.2723 (Simulation time: 00 hr 02 min 10 sec)
Heartbeat CPU 0 instructions: 20000007 cycles: 59438772 heartbeat IPC: 0.2661 cumulative IPC: 0.2681 (Simulation time: 00 hr 05 min 20 sec)
Simulation finished CPU 0 instructions: 25000001 cycles: 91122139 cumulative IPC: 0.2744 (Simulation time: 00 hr 08 min 13 sec)
Simulation complete CPU 0 instructions: 25000001 cycles: 91122139 cumulative IPC: 0.2744 (Simulation time: 00 hr 08 min 13 sec)

ChampSim completed all CPUs

=== Simulation ===
CPU 0 runs ../../hw2/traces/620.omnetpp_s-141B.champsimtrace.xz

Region of Interest Statistics

CPU 0 cumulative IPC: 0.2744 instructions: 25000001 cycles: 91122139
CPU 0 Branch Prediction Accuracy: 92.89% MPKI: 14.98 Average ROB Occupancy at Mispredict: 42.82
Branch type MPKI
BRANCH_DIRECT_JUMP: 0.8414
BRANCH_INDIRECT: 0.3648
BRANCH_CONDITIONAL: 12.48
BRANCH_DIRECT_CALL: 0.00052
BRANCH_INDIRECT_CALL: 0.8609
BRANCH_RETURN: 0.4358

cpu0->cpu0_STLB TOTAL        ACCESS:     562934 HIT:     442458 MISS:     120476 MSHR_MERGE:          0
cpu0->cpu0_STLB LOAD         ACCESS:     562934 HIT:     442458 MISS:     120476 MSHR_MERGE:          0
cpu0->cpu0_STLB RFO          ACCESS:          0 HIT:          0 MISS:          0 MSHR_MERGE:          0
cpu0->cpu0_STLB PREFETCH     ACCESS:          0 HIT:          0 MISS:          0 MSHR_MERGE:          0
cpu0->cpu0_STLB WRITE        ACCESS:          0 HIT:          0 MISS:          0 MSHR_MERGE:          0
cpu0->cpu0_STLB TRANSLATION  ACCESS:          0 HIT:          0 MISS:          0 MSHR_MERGE:          0
cpu0->cpu0_STLB PREFETCH REQUESTED:          0 ISSUED:          0 USEFUL:          0 USELESS:          0
cpu0->cpu0_STLB AVERAGE MISS LATENCY: 361.9 cycles
cpu0->cpu0_L2C TOTAL        ACCESS:    1017906 HIT:     448307 MISS:     569599 MSHR_MERGE:          0
cpu0->cpu0_L2C LOAD         ACCESS:     451635 HIT:     132022 MISS:     319613 MSHR_MERGE:          0
cpu0->cpu0_L2C RFO          ACCESS:      58145 HIT:      11691 MISS:      46454 MSHR_MERGE:          0
cpu0->cpu0_L2C PREFETCH     ACCESS:          0 HIT:          0 MISS:          0 MSHR_MERGE:          0
cpu0->cpu0_L2C WRITE        ACCESS:     240242 HIT:     239687 MISS:        555 MSHR_MERGE:          0
cpu0->cpu0_L2C TRANSLATION  ACCESS:     267884 HIT:      64907 MISS:     202977 MSHR_MERGE:          0
cpu0->cpu0_L2C PREFETCH REQUESTED:          0 ISSUED:          0 USEFUL:          0 USELESS:          0
cpu0->cpu0_L2C AVERAGE MISS LATENCY: 155.4 cycles
cpu0->cpu0_L1I TOTAL        ACCESS:    3342962 HIT:    3324742 MISS:      18220 MSHR_MERGE:       4358
cpu0->cpu0_L1I LOAD         ACCESS:    3342962 HIT:    3324742 MISS:      18220 MSHR_MERGE:       4358
cpu0->cpu0_L1I RFO          ACCESS:          0 HIT:          0 MISS:          0 MSHR_MERGE:          0
cpu0->cpu0_L1I PREFETCH     ACCESS:          0 HIT:          0 MISS:          0 MSHR_MERGE:          0
cpu0->cpu0_L1I WRITE        ACCESS:          0 HIT:          0 MISS:          0 MSHR_MERGE:          0
cpu0->cpu0_L1I TRANSLATION  ACCESS:          0 HIT:          0 MISS:          0 MSHR_MERGE:          0
cpu0->cpu0_L1I PREFETCH REQUESTED:          0 ISSUED:          0 USEFUL:          0 USELESS:          0
cpu0->cpu0_L1I AVERAGE MISS LATENCY: 19.46 cycles
cpu0->cpu0_L1D TOTAL        ACCESS:   10260148 HIT:    9244183 MISS:    1015965 MSHR_MERGE:     252163
cpu0->cpu0_L1D LOAD         ACCESS:    5442467 HIT:    4879360 MISS:     563107 MSHR_MERGE:     125334
cpu0->cpu0_L1D RFO          ACCESS:          0 HIT:          0 MISS:          0 MSHR_MERGE:          0
cpu0->cpu0_L1D PREFETCH     ACCESS:          0 HIT:          0 MISS:          0 MSHR_MERGE:          0
cpu0->cpu0_L1D WRITE        ACCESS:    4527494 HIT:    4343216 MISS:     184278 MSHR_MERGE:     126133
cpu0->cpu0_L1D TRANSLATION  ACCESS:     290187 HIT:      21607 MISS:     268580 MSHR_MERGE:        696
cpu0->cpu0_L1D PREFETCH REQUESTED:          0 ISSUED:          0 USEFUL:          0 USELESS:          0
cpu0->cpu0_L1D AVERAGE MISS LATENCY: 124.5 cycles
cpu0->cpu0_ITLB TOTAL        ACCESS:    2949125 HIT:    2871514 MISS:      77611 MSHR_MERGE:      37466
cpu0->cpu0_ITLB LOAD         ACCESS:    2949125 HIT:    2871514 MISS:      77611 MSHR_MERGE:      37466
cpu0->cpu0_ITLB RFO          ACCESS:          0 HIT:          0 MISS:          0 MSHR_MERGE:          0
cpu0->cpu0_ITLB PREFETCH     ACCESS:          0 HIT:          0 MISS:          0 MSHR_MERGE:          0
cpu0->cpu0_ITLB WRITE        ACCESS:          0 HIT:          0 MISS:          0 MSHR_MERGE:          0
cpu0->cpu0_ITLB TRANSLATION  ACCESS:          0 HIT:          0 MISS:          0 MSHR_MERGE:          0
cpu0->cpu0_ITLB PREFETCH REQUESTED:          0 ISSUED:          0 USEFUL:          0 USELESS:          0
cpu0->cpu0_ITLB AVERAGE MISS LATENCY: 7.467 cycles
cpu0->cpu0_DTLB TOTAL        ACCESS:    9476016 HIT:    8866228 MISS:     609788 MSHR_MERGE:      86999
cpu0->cpu0_DTLB LOAD         ACCESS:    9476016 HIT:    8866228 MISS:     609788 MSHR_MERGE:      86999
cpu0->cpu0_DTLB RFO          ACCESS:          0 HIT:          0 MISS:          0 MSHR_MERGE:          0
cpu0->cpu0_DTLB PREFETCH     ACCESS:          0 HIT:          0 MISS:          0 MSHR_MERGE:          0
cpu0->cpu0_DTLB WRITE        ACCESS:          0 HIT:          0 MISS:          0 MSHR_MERGE:          0
cpu0->cpu0_DTLB TRANSLATION  ACCESS:          0 HIT:          0 MISS:          0 MSHR_MERGE:          0
cpu0->cpu0_DTLB PREFETCH REQUESTED:          0 ISSUED:          0 USEFUL:          0 USELESS:          0
cpu0->cpu0_DTLB AVERAGE MISS LATENCY: 88.43 cycles
cpu0->LLC TOTAL        ACCESS:     750661 HIT:     330737 MISS:     419924 MSHR_MERGE:          0
cpu0->LLC LOAD         ACCESS:     319613 HIT:      71513 MISS:     248100 MSHR_MERGE:          0
cpu0->LLC RFO          ACCESS:      46454 HIT:      16993 MISS:      29461 MSHR_MERGE:          0
cpu0->LLC PREFETCH     ACCESS:          0 HIT:          0 MISS:          0 MSHR_MERGE:          0
cpu0->LLC WRITE        ACCESS:     181617 HIT:     180901 MISS:        716 MSHR_MERGE:          0
cpu0->LLC TRANSLATION  ACCESS:     202977 HIT:      61330 MISS:     141647 MSHR_MERGE:          0
cpu0->LLC PREFETCH REQUESTED:          0 ISSUED:          0 USEFUL:          0 USELESS:          0
cpu0->LLC AVERAGE MISS LATENCY: 189.5 cycles

DRAM Statistics

Channel 0 RQ ROW_BUFFER_HIT:       1460
  ROW_BUFFER_MISS:     417736
  AVG DBUS CONGESTED CYCLE: 19.83
Channel 0 WQ ROW_BUFFER_HIT:      44541
  ROW_BUFFER_MISS:      88033
  FULL:          0
Channel 0 REFRESHES ISSUED:       7593
