[VMEM] WARNING: physical memory size is smaller than virtual memory size.

*** ChampSim Multicore Out-of-Order Simulator ***
Warmup Instructions: 5000000
Simulation Instructions: 25000000
Number of CPUs: 1
Page size: 4096

Off-chip DRAM Size: 16 GiB Channels: 1 Width: 64-bit Data Rate: 3205 MT/s
Warmup finished CPU 0 instructions: 5000000 cycles: 1482076 cumulative IPC: 3.374 (Simulation time: 00 hr 00 min 17 sec)
Warmup complete CPU 0 instructions: 5000000 cycles: 1482076 cumulative IPC: 3.374 (Simulation time: 00 hr 00 min 17 sec)
Heartbeat CPU 0 instructions: 10000000 cycles: 6343252 heartbeat IPC: 1.576 cumulative IPC: 1.029 (Simulation time: 00 hr 00 min 53 sec)
Heartbeat CPU 0 instructions: 20000000 cycles: 13554112 heartbeat IPC: 1.387 cumulative IPC: 1.243 (Simulation time: 00 hr 01 min 50 sec)
Heartbeat CPU 0 instructions: 30000002 cycles: 23481272 heartbeat IPC: 1.007 cumulative IPC: 1.136 (Simulation time: 00 hr 03 min 03 sec)
Simulation finished CPU 0 instructions: 25000002 cycles: 21999196 cumulative IPC: 1.136 (Simulation time: 00 hr 03 min 03 sec)
Simulation complete CPU 0 instructions: 25000002 cycles: 21999196 cumulative IPC: 1.136 (Simulation time: 00 hr 03 min 03 sec)

ChampSim completed all CPUs

=== Simulation ===
CPU 0 runs ../../hw2/traces/627.cam4_s-490B.champsimtrace.xz

Region of Interest Statistics

CPU 0 cumulative IPC: 1.136 instructions: 25000002 cycles: 21999196
CPU 0 Branch Prediction Accuracy: 88.99% MPKI: 10.5 Average ROB Occupancy at Mispredict: 30.67
Branch type MPKI
BRANCH_DIRECT_JUMP: 0.00488
BRANCH_INDIRECT: 0
BRANCH_CONDITIONAL: 10.5
BRANCH_DIRECT_CALL: 0.00032
BRANCH_INDIRECT_CALL: 0
BRANCH_RETURN: 0.00044

cpu0->cpu0_STLB TOTAL        ACCESS:       8024 HIT:       7373 MISS:        651 MSHR_MERGE:          0
cpu0->cpu0_STLB LOAD         ACCESS:       8024 HIT:       7373 MISS:        651 MSHR_MERGE:          0
cpu0->cpu0_STLB RFO          ACCESS:          0 HIT:          0 MISS:          0 MSHR_MERGE:          0
cpu0->cpu0_STLB PREFETCH     ACCESS:          0 HIT:          0 MISS:          0 MSHR_MERGE:          0
cpu0->cpu0_STLB WRITE        ACCESS:          0 HIT:          0 MISS:          0 MSHR_MERGE:          0
cpu0->cpu0_STLB TRANSLATION  ACCESS:          0 HIT:          0 MISS:          0 MSHR_MERGE:          0
cpu0->cpu0_STLB PREFETCH REQUESTED:          0 ISSUED:          0 USEFUL:          0 USELESS:          0
cpu0->cpu0_STLB AVERAGE MISS LATENCY: 725.5 cycles
cpu0->cpu0_L2C TOTAL        ACCESS:     667938 HIT:     356661 MISS:     311277 MSHR_MERGE:          0
cpu0->cpu0_L2C LOAD         ACCESS:     330481 HIT:     151435 MISS:     179046 MSHR_MERGE:          0
cpu0->cpu0_L2C RFO          ACCESS:     136465 HIT:       5476 MISS:     130989 MSHR_MERGE:          0
cpu0->cpu0_L2C PREFETCH     ACCESS:          0 HIT:          0 MISS:          0 MSHR_MERGE:          0
cpu0->cpu0_L2C WRITE        ACCESS:     200171 HIT:     199746 MISS:        425 MSHR_MERGE:          0
cpu0->cpu0_L2C TRANSLATION  ACCESS:        821 HIT:          4 MISS:        817 MSHR_MERGE:          0
cpu0->cpu0_L2C PREFETCH REQUESTED:          0 ISSUED:          0 USEFUL:          0 USELESS:          0
cpu0->cpu0_L2C AVERAGE MISS LATENCY: 127.2 cycles
cpu0->cpu0_L1I TOTAL        ACCESS:    1729874 HIT:    1728828 MISS:       1046 MSHR_MERGE:        509
cpu0->cpu0_L1I LOAD         ACCESS:    1729874 HIT:    1728828 MISS:       1046 MSHR_MERGE:        509
cpu0->cpu0_L1I RFO          ACCESS:          0 HIT:          0 MISS:          0 MSHR_MERGE:          0
cpu0->cpu0_L1I PREFETCH     ACCESS:          0 HIT:          0 MISS:          0 MSHR_MERGE:          0
cpu0->cpu0_L1I WRITE        ACCESS:          0 HIT:          0 MISS:          0 MSHR_MERGE:          0
cpu0->cpu0_L1I TRANSLATION  ACCESS:          0 HIT:          0 MISS:          0 MSHR_MERGE:          0
cpu0->cpu0_L1I PREFETCH REQUESTED:          0 ISSUED:          0 USEFUL:          0 USELESS:          0
cpu0->cpu0_L1I AVERAGE MISS LATENCY: 250.5 cycles
cpu0->cpu0_L1D TOTAL        ACCESS:    4977960 HIT:    3594676 MISS:    1383284 MSHR_MERGE:     916053
cpu0->cpu0_L1D LOAD         ACCESS:    3319909 HIT:    2611343 MISS:     708566 MSHR_MERGE:     378621
cpu0->cpu0_L1D RFO          ACCESS:          0 HIT:          0 MISS:          0 MSHR_MERGE:          0
cpu0->cpu0_L1D PREFETCH     ACCESS:          0 HIT:          0 MISS:          0 MSHR_MERGE:          0
cpu0->cpu0_L1D WRITE        ACCESS:    1656737 HIT:     982842 MISS:     673895 MSHR_MERGE:     537430
cpu0->cpu0_L1D TRANSLATION  ACCESS:       1314 HIT:        491 MISS:        823 MSHR_MERGE:          2
cpu0->cpu0_L1D PREFETCH REQUESTED:          0 ISSUED:          0 USEFUL:          0 USELESS:          0
cpu0->cpu0_L1D AVERAGE MISS LATENCY: 93.18 cycles
cpu0->cpu0_ITLB TOTAL        ACCESS:    1554689 HIT:    1554667 MISS:         22 MSHR_MERGE:         16
cpu0->cpu0_ITLB LOAD         ACCESS:    1554689 HIT:    1554667 MISS:         22 MSHR_MERGE:         16
cpu0->cpu0_ITLB RFO          ACCESS:          0 HIT:          0 MISS:          0 MSHR_MERGE:          0
cpu0->cpu0_ITLB PREFETCH     ACCESS:          0 HIT:          0 MISS:          0 MSHR_MERGE:          0
cpu0->cpu0_ITLB WRITE        ACCESS:          0 HIT:          0 MISS:          0 MSHR_MERGE:          0
cpu0->cpu0_ITLB TRANSLATION  ACCESS:          0 HIT:          0 MISS:          0 MSHR_MERGE:          0
cpu0->cpu0_ITLB PREFETCH REQUESTED:          0 ISSUED:          0 USEFUL:          0 USELESS:          0
cpu0->cpu0_ITLB AVERAGE MISS LATENCY: 917.3 cycles
cpu0->cpu0_DTLB TOTAL        ACCESS:    4823300 HIT:    4807901 MISS:      15399 MSHR_MERGE:       7381
cpu0->cpu0_DTLB LOAD         ACCESS:    4823300 HIT:    4807901 MISS:      15399 MSHR_MERGE:       7381
cpu0->cpu0_DTLB RFO          ACCESS:          0 HIT:          0 MISS:          0 MSHR_MERGE:          0
cpu0->cpu0_DTLB PREFETCH     ACCESS:          0 HIT:          0 MISS:          0 MSHR_MERGE:          0
cpu0->cpu0_DTLB WRITE        ACCESS:          0 HIT:          0 MISS:          0 MSHR_MERGE:          0
cpu0->cpu0_DTLB TRANSLATION  ACCESS:          0 HIT:          0 MISS:          0 MSHR_MERGE:          0
cpu0->cpu0_DTLB PREFETCH REQUESTED:          0 ISSUED:          0 USEFUL:          0 USELESS:          0
cpu0->cpu0_DTLB AVERAGE MISS LATENCY: 63.3 cycles
cpu0->LLC TOTAL        ACCESS:     477438 HIT:     353666 MISS:     123772 MSHR_MERGE:          0
cpu0->LLC LOAD         ACCESS:     179045 HIT:     128044 MISS:      51001 MSHR_MERGE:          0
cpu0->LLC RFO          ACCESS:     130989 HIT:      59039 MISS:      71950 MSHR_MERGE:          0
cpu0->LLC PREFETCH     ACCESS:          0 HIT:          0 MISS:          0 MSHR_MERGE:          0
cpu0->LLC WRITE        ACCESS:     166587 HIT:     166580 MISS:          7 MSHR_MERGE:          0
cpu0->LLC TRANSLATION  ACCESS:        817 HIT:          3 MISS:        814 MSHR_MERGE:          0
cpu0->LLC PREFETCH REQUESTED:          0 ISSUED:          0 USEFUL:          0 USELESS:          0
cpu0->LLC AVERAGE MISS LATENCY: 281.1 cycles

DRAM Statistics

Channel 0 RQ ROW_BUFFER_HIT:       6819
  ROW_BUFFER_MISS:     116777
  AVG DBUS CONGESTED CYCLE: 9.471
Channel 0 WQ ROW_BUFFER_HIT:      21421
  ROW_BUFFER_MISS:      70486
  FULL:          0
Channel 0 REFRESHES ISSUED:       1833
