[VMEM] WARNING: physical memory size is smaller than virtual memory size.

*** ChampSim Multicore Out-of-Order Simulator ***
Warmup Instructions: 5000000
Simulation Instructions: 25000000
Number of CPUs: 1
Page size: 4096

Off-chip DRAM Size: 16 GiB Channels: 1 Width: 64-bit Data Rate: 3205 MT/s
Warmup finished CPU 0 instructions: 5000001 cycles: 1465520 cumulative IPC: 3.412 (Simulation time: 00 hr 00 min 17 sec)
Warmup complete CPU 0 instructions: 5000001 cycles: 1465520 cumulative IPC: 3.412 (Simulation time: 00 hr 00 min 17 sec)
Heartbeat CPU 0 instructions: 10000002 cycles: 5385461 heartbeat IPC: 1.857 cumulative IPC: 1.276 (Simulation time: 00 hr 00 min 47 sec)
Heartbeat CPU 0 instructions: 20000003 cycles: 13261061 heartbeat IPC: 1.27 cumulative IPC: 1.272 (Simulation time: 00 hr 01 min 45 sec)
Simulation finished CPU 0 instructions: 25000001 cycles: 19673698 cumulative IPC: 1.271 (Simulation time: 00 hr 02 min 44 sec)
Simulation complete CPU 0 instructions: 25000001 cycles: 19673698 cumulative IPC: 1.271 (Simulation time: 00 hr 02 min 44 sec)

ChampSim completed all CPUs

=== Simulation ===
CPU 0 runs ../../hw2/traces/628.pop2_s-17B.champsimtrace.xz

Region of Interest Statistics

CPU 0 cumulative IPC: 1.271 instructions: 25000001 cycles: 19673698
CPU 0 Branch Prediction Accuracy: 96.44% MPKI: 4.069 Average ROB Occupancy at Mispredict: 91.86
Branch type MPKI
BRANCH_DIRECT_JUMP: 0.05124
BRANCH_INDIRECT: 0.0016
BRANCH_CONDITIONAL: 4.016
BRANCH_DIRECT_CALL: 0
BRANCH_INDIRECT_CALL: 0
BRANCH_RETURN: 0

cpu0->cpu0_STLB TOTAL        ACCESS:      22004 HIT:      20774 MISS:       1230 MSHR_MERGE:          0
cpu0->cpu0_STLB LOAD         ACCESS:      22004 HIT:      20774 MISS:       1230 MSHR_MERGE:          0
cpu0->cpu0_STLB RFO          ACCESS:          0 HIT:          0 MISS:          0 MSHR_MERGE:          0
cpu0->cpu0_STLB PREFETCH     ACCESS:          0 HIT:          0 MISS:          0 MSHR_MERGE:          0
cpu0->cpu0_STLB WRITE        ACCESS:          0 HIT:          0 MISS:          0 MSHR_MERGE:          0
cpu0->cpu0_STLB TRANSLATION  ACCESS:          0 HIT:          0 MISS:          0 MSHR_MERGE:          0
cpu0->cpu0_STLB PREFETCH REQUESTED:          0 ISSUED:          0 USEFUL:          0 USELESS:          0
cpu0->cpu0_STLB AVERAGE MISS LATENCY: 746.7 cycles
cpu0->cpu0_L2C TOTAL        ACCESS:     753563 HIT:     525623 MISS:     227940 MSHR_MERGE:          0
cpu0->cpu0_L2C LOAD         ACCESS:     410750 HIT:     238045 MISS:     172705 MSHR_MERGE:          0
cpu0->cpu0_L2C RFO          ACCESS:     136429 HIT:      83845 MISS:      52584 MSHR_MERGE:          0
cpu0->cpu0_L2C PREFETCH     ACCESS:          0 HIT:          0 MISS:          0 MSHR_MERGE:          0
cpu0->cpu0_L2C WRITE        ACCESS:     203786 HIT:     203624 MISS:        162 MSHR_MERGE:          0
cpu0->cpu0_L2C TRANSLATION  ACCESS:       2598 HIT:        109 MISS:       2489 MSHR_MERGE:          0
cpu0->cpu0_L2C PREFETCH REQUESTED:          0 ISSUED:          0 USEFUL:          0 USELESS:          0
cpu0->cpu0_L2C AVERAGE MISS LATENCY: 81.09 cycles
cpu0->cpu0_L1I TOTAL        ACCESS:    1893301 HIT:    1838589 MISS:      54712 MSHR_MERGE:      25171
cpu0->cpu0_L1I LOAD         ACCESS:    1893301 HIT:    1838589 MISS:      54712 MSHR_MERGE:      25171
cpu0->cpu0_L1I RFO          ACCESS:          0 HIT:          0 MISS:          0 MSHR_MERGE:          0
cpu0->cpu0_L1I PREFETCH     ACCESS:          0 HIT:          0 MISS:          0 MSHR_MERGE:          0
cpu0->cpu0_L1I WRITE        ACCESS:          0 HIT:          0 MISS:          0 MSHR_MERGE:          0
cpu0->cpu0_L1I TRANSLATION  ACCESS:          0 HIT:          0 MISS:          0 MSHR_MERGE:          0
cpu0->cpu0_L1I PREFETCH REQUESTED:          0 ISSUED:          0 USEFUL:          0 USELESS:          0
cpu0->cpu0_L1I AVERAGE MISS LATENCY: 23.44 cycles
cpu0->cpu0_L1D TOTAL        ACCESS:    6521570 HIT:    5354999 MISS:    1166571 MSHR_MERGE:     646331
cpu0->cpu0_L1D LOAD         ACCESS:    4626522 HIT:    3913449 MISS:     713073 MSHR_MERGE:     331862
cpu0->cpu0_L1D RFO          ACCESS:          0 HIT:          0 MISS:          0 MSHR_MERGE:          0
cpu0->cpu0_L1D PREFETCH     ACCESS:          0 HIT:          0 MISS:          0 MSHR_MERGE:          0
cpu0->cpu0_L1D WRITE        ACCESS:    1892181 HIT:    1441360 MISS:     450821 MSHR_MERGE:     314390
cpu0->cpu0_L1D TRANSLATION  ACCESS:       2867 HIT:        190 MISS:       2677 MSHR_MERGE:         79
cpu0->cpu0_L1D PREFETCH REQUESTED:          0 ISSUED:          0 USEFUL:          0 USELESS:          0
cpu0->cpu0_L1D AVERAGE MISS LATENCY: 43.1 cycles
cpu0->cpu0_ITLB TOTAL        ACCESS:    1541157 HIT:    1538034 MISS:       3123 MSHR_MERGE:       1884
cpu0->cpu0_ITLB LOAD         ACCESS:    1541157 HIT:    1538034 MISS:       3123 MSHR_MERGE:       1884
cpu0->cpu0_ITLB RFO          ACCESS:          0 HIT:          0 MISS:          0 MSHR_MERGE:          0
cpu0->cpu0_ITLB PREFETCH     ACCESS:          0 HIT:          0 MISS:          0 MSHR_MERGE:          0
cpu0->cpu0_ITLB WRITE        ACCESS:          0 HIT:          0 MISS:          0 MSHR_MERGE:          0
cpu0->cpu0_ITLB TRANSLATION  ACCESS:          0 HIT:          0 MISS:          0 MSHR_MERGE:          0
cpu0->cpu0_ITLB PREFETCH REQUESTED:          0 ISSUED:          0 USEFUL:          0 USELESS:          0
cpu0->cpu0_ITLB AVERAGE MISS LATENCY: 5 cycles
cpu0->cpu0_DTLB TOTAL        ACCESS:    6268290 HIT:    6232918 MISS:      35372 MSHR_MERGE:      14607
cpu0->cpu0_DTLB LOAD         ACCESS:    6268290 HIT:    6232918 MISS:      35372 MSHR_MERGE:      14607
cpu0->cpu0_DTLB RFO          ACCESS:          0 HIT:          0 MISS:          0 MSHR_MERGE:          0
cpu0->cpu0_DTLB PREFETCH     ACCESS:          0 HIT:          0 MISS:          0 MSHR_MERGE:          0
cpu0->cpu0_DTLB WRITE        ACCESS:          0 HIT:          0 MISS:          0 MSHR_MERGE:          0
cpu0->cpu0_DTLB TRANSLATION  ACCESS:          0 HIT:          0 MISS:          0 MSHR_MERGE:          0
cpu0->cpu0_DTLB PREFETCH REQUESTED:          0 ISSUED:          0 USEFUL:          0 USELESS:          0
cpu0->cpu0_DTLB AVERAGE MISS LATENCY: 49.29 cycles
cpu0->LLC TOTAL        ACCESS:     315290 HIT:     236320 MISS:      78970 MSHR_MERGE:          0
cpu0->LLC LOAD         ACCESS:     172705 HIT:     102143 MISS:      70562 MSHR_MERGE:          0
cpu0->LLC RFO          ACCESS:      52584 HIT:      46492 MISS:       6092 MSHR_MERGE:          0
cpu0->LLC PREFETCH     ACCESS:          0 HIT:          0 MISS:          0 MSHR_MERGE:          0
cpu0->LLC WRITE        ACCESS:      87512 HIT:      86968 MISS:        544 MSHR_MERGE:          0
cpu0->LLC TRANSLATION  ACCESS:       2489 HIT:        717 MISS:       1772 MSHR_MERGE:          0
cpu0->LLC PREFETCH REQUESTED:          0 ISSUED:          0 USEFUL:          0 USELESS:          0
cpu0->LLC AVERAGE MISS LATENCY: 189.8 cycles

DRAM Statistics

Channel 0 RQ ROW_BUFFER_HIT:       2239
  ROW_BUFFER_MISS:      76171
  AVG DBUS CONGESTED CYCLE: 14.95
Channel 0 WQ ROW_BUFFER_HIT:       5248
  ROW_BUFFER_MISS:      15247
  FULL:          0
Channel 0 REFRESHES ISSUED:       1639
