[VMEM] WARNING: physical memory size is smaller than virtual memory size.

*** ChampSim Multicore Out-of-Order Simulator ***
Warmup Instructions: 5000000
Simulation Instructions: 25000000
Number of CPUs: 1
Page size: 4096

Off-chip DRAM Size: 16 GiB Channels: 1 Width: 64-bit Data Rate: 3205 MT/s
Warmup finished CPU 0 instructions: 5000001 cycles: 1305098 cumulative IPC: 3.831 (Simulation time: 00 hr 00 min 15 sec)
Warmup complete CPU 0 instructions: 5000001 cycles: 1305098 cumulative IPC: 3.831 (Simulation time: 00 hr 00 min 15 sec)
Heartbeat CPU 0 instructions: 10000001 cycles: 2789752 heartbeat IPC: 3.585 cumulative IPC: 3.368 (Simulation time: 00 hr 00 min 31 sec)
Heartbeat CPU 0 instructions: 20000004 cycles: 5758394 heartbeat IPC: 3.369 cumulative IPC: 3.368 (Simulation time: 00 hr 01 min 03 sec)
Heartbeat CPU 0 instructions: 30000005 cycles: 8729232 heartbeat IPC: 3.366 cumulative IPC: 3.367 (Simulation time: 00 hr 01 min 37 sec)
Simulation finished CPU 0 instructions: 25000004 cycles: 7424134 cumulative IPC: 3.367 (Simulation time: 00 hr 01 min 37 sec)
Simulation complete CPU 0 instructions: 25000004 cycles: 7424134 cumulative IPC: 3.367 (Simulation time: 00 hr 01 min 37 sec)

ChampSim completed all CPUs

=== Simulation ===
CPU 0 runs ../../hw2/traces/638.imagick_s-10316B.champsimtrace.xz

Region of Interest Statistics

CPU 0 cumulative IPC: 3.367 instructions: 25000004 cycles: 7424134
CPU 0 Branch Prediction Accuracy: 99.7% MPKI: 0.313 Average ROB Occupancy at Mispredict: 348.4
Branch type MPKI
BRANCH_DIRECT_JUMP: 4e-05
BRANCH_INDIRECT: 0
BRANCH_CONDITIONAL: 0.3129
BRANCH_DIRECT_CALL: 0
BRANCH_INDIRECT_CALL: 0
BRANCH_RETURN: 0

cpu0->cpu0_STLB TOTAL        ACCESS:      11623 HIT:      11608 MISS:         15 MSHR_MERGE:          0
cpu0->cpu0_STLB LOAD         ACCESS:      11623 HIT:      11608 MISS:         15 MSHR_MERGE:          0
cpu0->cpu0_STLB RFO          ACCESS:          0 HIT:          0 MISS:          0 MSHR_MERGE:          0
cpu0->cpu0_STLB PREFETCH     ACCESS:          0 HIT:          0 MISS:          0 MSHR_MERGE:          0
cpu0->cpu0_STLB WRITE        ACCESS:          0 HIT:          0 MISS:          0 MSHR_MERGE:          0
cpu0->cpu0_STLB TRANSLATION  ACCESS:          0 HIT:          0 MISS:          0 MSHR_MERGE:          0
cpu0->cpu0_STLB PREFETCH REQUESTED:          0 ISSUED:          0 USEFUL:          0 USELESS:          0
cpu0->cpu0_STLB AVERAGE MISS LATENCY: 762.9 cycles
cpu0->cpu0_L2C TOTAL        ACCESS:     222891 HIT:     220127 MISS:       2764 MSHR_MERGE:          0
cpu0->cpu0_L2C LOAD         ACCESS:     222358 HIT:     219632 MISS:       2726 MSHR_MERGE:          0
cpu0->cpu0_L2C RFO          ACCESS:        149 HIT:        140 MISS:          9 MSHR_MERGE:          0
cpu0->cpu0_L2C PREFETCH     ACCESS:          0 HIT:          0 MISS:          0 MSHR_MERGE:          0
cpu0->cpu0_L2C WRITE        ACCESS:        354 HIT:        354 MISS:          0 MSHR_MERGE:          0
cpu0->cpu0_L2C TRANSLATION  ACCESS:         30 HIT:          1 MISS:         29 MSHR_MERGE:          0
cpu0->cpu0_L2C PREFETCH REQUESTED:          0 ISSUED:          0 USEFUL:          0 USELESS:          0
cpu0->cpu0_L2C AVERAGE MISS LATENCY: 71.45 cycles
cpu0->cpu0_L1I TOTAL        ACCESS:    3247328 HIT:    3247328 MISS:          0 MSHR_MERGE:          0
cpu0->cpu0_L1I LOAD         ACCESS:    3247328 HIT:    3247328 MISS:          0 MSHR_MERGE:          0
cpu0->cpu0_L1I RFO          ACCESS:          0 HIT:          0 MISS:          0 MSHR_MERGE:          0
cpu0->cpu0_L1I PREFETCH     ACCESS:          0 HIT:          0 MISS:          0 MSHR_MERGE:          0
cpu0->cpu0_L1I WRITE        ACCESS:          0 HIT:          0 MISS:          0 MSHR_MERGE:          0
cpu0->cpu0_L1I TRANSLATION  ACCESS:          0 HIT:          0 MISS:          0 MSHR_MERGE:          0
cpu0->cpu0_L1I PREFETCH REQUESTED:          0 ISSUED:          0 USEFUL:          0 USELESS:          0
cpu0->cpu0_L1I AVERAGE MISS LATENCY: - cycles
cpu0->cpu0_L1D TOTAL        ACCESS:    2790338 HIT:    2097250 MISS:     693088 MSHR_MERGE:     470551
cpu0->cpu0_L1D LOAD         ACCESS:    2789098 HIT:    2096342 MISS:     692756 MSHR_MERGE:     470398
cpu0->cpu0_L1D RFO          ACCESS:          0 HIT:          0 MISS:          0 MSHR_MERGE:          0
cpu0->cpu0_L1D PREFETCH     ACCESS:          0 HIT:          0 MISS:          0 MSHR_MERGE:          0
cpu0->cpu0_L1D WRITE        ACCESS:       1210 HIT:        908 MISS:        302 MSHR_MERGE:        153
cpu0->cpu0_L1D TRANSLATION  ACCESS:         30 HIT:          0 MISS:         30 MSHR_MERGE:          0
cpu0->cpu0_L1D PREFETCH REQUESTED:          0 ISSUED:          0 USEFUL:          0 USELESS:          0
cpu0->cpu0_L1D AVERAGE MISS LATENCY: 8.9 cycles
cpu0->cpu0_ITLB TOTAL        ACCESS:    2528915 HIT:    2528915 MISS:          0 MSHR_MERGE:          0
cpu0->cpu0_ITLB LOAD         ACCESS:    2528915 HIT:    2528915 MISS:          0 MSHR_MERGE:          0
cpu0->cpu0_ITLB RFO          ACCESS:          0 HIT:          0 MISS:          0 MSHR_MERGE:          0
cpu0->cpu0_ITLB PREFETCH     ACCESS:          0 HIT:          0 MISS:          0 MSHR_MERGE:          0
cpu0->cpu0_ITLB WRITE        ACCESS:          0 HIT:          0 MISS:          0 MSHR_MERGE:          0
cpu0->cpu0_ITLB TRANSLATION  ACCESS:          0 HIT:          0 MISS:          0 MSHR_MERGE:          0
cpu0->cpu0_ITLB PREFETCH REQUESTED:          0 ISSUED:          0 USEFUL:          0 USELESS:          0
cpu0->cpu0_ITLB AVERAGE MISS LATENCY: - cycles
cpu0->cpu0_DTLB TOTAL        ACCESS:    2790123 HIT:    2744780 MISS:      45343 MSHR_MERGE:      33720
cpu0->cpu0_DTLB LOAD         ACCESS:    2790123 HIT:    2744780 MISS:      45343 MSHR_MERGE:      33720
cpu0->cpu0_DTLB RFO          ACCESS:          0 HIT:          0 MISS:          0 MSHR_MERGE:          0
cpu0->cpu0_DTLB PREFETCH     ACCESS:          0 HIT:          0 MISS:          0 MSHR_MERGE:          0
cpu0->cpu0_DTLB WRITE        ACCESS:          0 HIT:          0 MISS:          0 MSHR_MERGE:          0
cpu0->cpu0_DTLB TRANSLATION  ACCESS:          0 HIT:          0 MISS:          0 MSHR_MERGE:          0
cpu0->cpu0_DTLB PREFETCH REQUESTED:          0 ISSUED:          0 USEFUL:          0 USELESS:          0
cpu0->cpu0_DTLB AVERAGE MISS LATENCY: 5.986 cycles
cpu0->LLC TOTAL        ACCESS:       2764 HIT:       1758 MISS:       1006 MSHR_MERGE:          0
cpu0->LLC LOAD         ACCESS:       2726 HIT:       1758 MISS:        968 MSHR_MERGE:          0
cpu0->LLC RFO          ACCESS:          9 HIT:          0 MISS:          9 MSHR_MERGE:          0
cpu0->LLC PREFETCH     ACCESS:          0 HIT:          0 MISS:          0 MSHR_MERGE:          0
cpu0->LLC WRITE        ACCESS:          0 HIT:          0 MISS:          0 MSHR_MERGE:          0
cpu0->LLC TRANSLATION  ACCESS:         29 HIT:          0 MISS:         29 MSHR_MERGE:          0
cpu0->LLC PREFETCH REQUESTED:          0 ISSUED:          0 USEFUL:          0 USELESS:          0
cpu0->LLC AVERAGE MISS LATENCY: 154.1 cycles

DRAM Statistics

Channel 0 RQ ROW_BUFFER_HIT:          0
  ROW_BUFFER_MISS:       1006
  AVG DBUS CONGESTED CYCLE: -
Channel 0 WQ ROW_BUFFER_HIT:          0
  ROW_BUFFER_MISS:          0
  FULL:          0
Channel 0 REFRESHES ISSUED:        619
