[VMEM] WARNING: physical memory size is smaller than virtual memory size.

*** ChampSim Multicore Out-of-Order Simulator ***
Warmup Instructions: 5000000
Simulation Instructions: 25000000
Number of CPUs: 1
Page size: 4096

Off-chip DRAM Size: 16 GiB Channels: 1 Width: 64-bit Data Rate: 3205 MT/s
Warmup finished CPU 0 instructions: 5000001 cycles: 1493800 cumulative IPC: 3.347 (Simulation time: 00 hr 00 min 19 sec)
Warmup complete CPU 0 instructions: 5000001 cycles: 1493800 cumulative IPC: 3.347 (Simulation time: 00 hr 00 min 19 sec)
Heartbeat CPU 0 instructions: 10000003 cycles: 14114785 heartbeat IPC: 0.7085 cumulative IPC: 0.3962 (Simulation time: 00 hr 01 min 47 sec)
Heartbeat CPU 0 instructions: 20000007 cycles: 39491393 heartbeat IPC: 0.3941 cumulative IPC: 0.3948 (Simulation time: 00 hr 04 min 26 sec)
Simulation finished CPU 0 instructions: 25000001 cycles: 63485299 cumulative IPC: 0.3938 (Simulation time: 00 hr 07 min 04 sec)
Simulation complete CPU 0 instructions: 25000001 cycles: 63485299 cumulative IPC: 0.3938 (Simulation time: 00 hr 07 min 04 sec)

ChampSim completed all CPUs

=== Simulation ===
CPU 0 runs ../../hw2/traces/649.fotonik3d_s-1176B.champsimtrace.xz

Region of Interest Statistics

CPU 0 cumulative IPC: 0.3938 instructions: 25000001 cycles: 63485299
CPU 0 Branch Prediction Accuracy: 99.97% MPKI: 0.0044 Average ROB Occupancy at Mispredict: 352
Branch type MPKI
BRANCH_DIRECT_JUMP: 0
BRANCH_INDIRECT: 0
BRANCH_CONDITIONAL: 0.0044
BRANCH_DIRECT_CALL: 0
BRANCH_INDIRECT_CALL: 0
BRANCH_RETURN: 0

cpu0->cpu0_STLB TOTAL        ACCESS:       5815 HIT:       2377 MISS:       3438 MSHR_MERGE:          0
cpu0->cpu0_STLB LOAD         ACCESS:       5815 HIT:       2377 MISS:       3438 MSHR_MERGE:          0
cpu0->cpu0_STLB RFO          ACCESS:          0 HIT:          0 MISS:          0 MSHR_MERGE:          0
cpu0->cpu0_STLB PREFETCH     ACCESS:          0 HIT:          0 MISS:          0 MSHR_MERGE:          0
cpu0->cpu0_STLB WRITE        ACCESS:          0 HIT:          0 MISS:          0 MSHR_MERGE:          0
cpu0->cpu0_STLB TRANSLATION  ACCESS:          0 HIT:          0 MISS:          0 MSHR_MERGE:          0
cpu0->cpu0_STLB PREFETCH REQUESTED:          0 ISSUED:          0 USEFUL:          0 USELESS:          0
cpu0->cpu0_STLB AVERAGE MISS LATENCY: 664.3 cycles
cpu0->cpu0_L2C TOTAL        ACCESS:     554464 HIT:     310565 MISS:     243899 MSHR_MERGE:          0
cpu0->cpu0_L2C LOAD         ACCESS:     330466 HIT:      90517 MISS:     239949 MSHR_MERGE:          0
cpu0->cpu0_L2C RFO          ACCESS:        385 HIT:        328 MISS:         57 MSHR_MERGE:          0
cpu0->cpu0_L2C PREFETCH     ACCESS:          0 HIT:          0 MISS:          0 MSHR_MERGE:          0
cpu0->cpu0_L2C WRITE        ACCESS:     219626 HIT:     219626 MISS:          0 MSHR_MERGE:          0
cpu0->cpu0_L2C TRANSLATION  ACCESS:       3987 HIT:         94 MISS:       3893 MSHR_MERGE:          0
cpu0->cpu0_L2C PREFETCH REQUESTED:          0 ISSUED:          0 USEFUL:          0 USELESS:          0
cpu0->cpu0_L2C AVERAGE MISS LATENCY: 221.2 cycles
cpu0->cpu0_L1I TOTAL        ACCESS:    4437780 HIT:    4437780 MISS:          0 MSHR_MERGE:          0
cpu0->cpu0_L1I LOAD         ACCESS:    4437780 HIT:    4437780 MISS:          0 MSHR_MERGE:          0
cpu0->cpu0_L1I RFO          ACCESS:          0 HIT:          0 MISS:          0 MSHR_MERGE:          0
cpu0->cpu0_L1I PREFETCH     ACCESS:          0 HIT:          0 MISS:          0 MSHR_MERGE:          0
cpu0->cpu0_L1I WRITE        ACCESS:          0 HIT:          0 MISS:          0 MSHR_MERGE:          0
cpu0->cpu0_L1I TRANSLATION  ACCESS:          0 HIT:          0 MISS:          0 MSHR_MERGE:          0
cpu0->cpu0_L1I PREFETCH REQUESTED:          0 ISSUED:          0 USEFUL:          0 USELESS:          0
cpu0->cpu0_L1I AVERAGE MISS LATENCY: - cycles
cpu0->cpu0_L1D TOTAL        ACCESS:    7701955 HIT:    6429983 MISS:    1271972 MSHR_MERGE:     937134
cpu0->cpu0_L1D LOAD         ACCESS:    5939924 HIT:    4673145 MISS:    1266779 MSHR_MERGE:     936313
cpu0->cpu0_L1D RFO          ACCESS:          0 HIT:          0 MISS:          0 MSHR_MERGE:          0
cpu0->cpu0_L1D PREFETCH     ACCESS:          0 HIT:          0 MISS:          0 MSHR_MERGE:          0
cpu0->cpu0_L1D WRITE        ACCESS:    1755141 HIT:    1753935 MISS:       1206 MSHR_MERGE:        821
cpu0->cpu0_L1D TRANSLATION  ACCESS:       6890 HIT:       2903 MISS:       3987 MSHR_MERGE:          0
cpu0->cpu0_L1D PREFETCH REQUESTED:          0 ISSUED:          0 USEFUL:          0 USELESS:          0
cpu0->cpu0_L1D AVERAGE MISS LATENCY: 169.8 cycles
cpu0->cpu0_ITLB TOTAL        ACCESS:    3563125 HIT:    3563125 MISS:          0 MSHR_MERGE:          0
cpu0->cpu0_ITLB LOAD         ACCESS:    3563125 HIT:    3563125 MISS:          0 MSHR_MERGE:          0
cpu0->cpu0_ITLB RFO          ACCESS:          0 HIT:          0 MISS:          0 MSHR_MERGE:          0
cpu0->cpu0_ITLB PREFETCH     ACCESS:          0 HIT:          0 MISS:          0 MSHR_MERGE:          0
cpu0->cpu0_ITLB WRITE        ACCESS:          0 HIT:          0 MISS:          0 MSHR_MERGE:          0
cpu0->cpu0_ITLB TRANSLATION  ACCESS:          0 HIT:          0 MISS:          0 MSHR_MERGE:          0
cpu0->cpu0_ITLB PREFETCH REQUESTED:          0 ISSUED:          0 USEFUL:          0 USELESS:          0
cpu0->cpu0_ITLB AVERAGE MISS LATENCY: - cycles
cpu0->cpu0_DTLB TOTAL        ACCESS:    7084845 HIT:    7065004 MISS:      19841 MSHR_MERGE:      14026
cpu0->cpu0_DTLB LOAD         ACCESS:    7084845 HIT:    7065004 MISS:      19841 MSHR_MERGE:      14026
cpu0->cpu0_DTLB RFO          ACCESS:          0 HIT:          0 MISS:          0 MSHR_MERGE:          0
cpu0->cpu0_DTLB PREFETCH     ACCESS:          0 HIT:          0 MISS:          0 MSHR_MERGE:          0
cpu0->cpu0_DTLB WRITE        ACCESS:          0 HIT:          0 MISS:          0 MSHR_MERGE:          0
cpu0->cpu0_DTLB TRANSLATION  ACCESS:          0 HIT:          0 MISS:          0 MSHR_MERGE:          0
cpu0->cpu0_DTLB PREFETCH REQUESTED:          0 ISSUED:          0 USEFUL:          0 USELESS:          0
cpu0->cpu0_DTLB AVERAGE MISS LATENCY: 398.4 cycles
cpu0->LLC TOTAL        ACCESS:     463009 HIT:     236060 MISS:     226949 MSHR_MERGE:          0
cpu0->LLC LOAD         ACCESS:     239949 HIT:      16905 MISS:     223044 MSHR_MERGE:          0
cpu0->LLC RFO          ACCESS:         57 HIT:         57 MISS:          0 MSHR_MERGE:          0
cpu0->LLC PREFETCH     ACCESS:          0 HIT:          0 MISS:          0 MSHR_MERGE:          0
cpu0->LLC WRITE        ACCESS:     219110 HIT:     219096 MISS:         14 MSHR_MERGE:          0
cpu0->LLC TRANSLATION  ACCESS:       3893 HIT:          2 MISS:       3891 MSHR_MERGE:          0
cpu0->LLC PREFETCH REQUESTED:          0 ISSUED:          0 USEFUL:          0 USELESS:          0
cpu0->LLC AVERAGE MISS LATENCY: 220.6 cycles

DRAM Statistics

Channel 0 RQ ROW_BUFFER_HIT:       1455
  ROW_BUFFER_MISS:     225480
  AVG DBUS CONGESTED CYCLE: 9.789
Channel 0 WQ ROW_BUFFER_HIT:      89053
  ROW_BUFFER_MISS:     129565
  FULL:          0
Channel 0 REFRESHES ISSUED:       5290
