[VMEM] WARNING: physical memory size is smaller than virtual memory size.

*** ChampSim Multicore Out-of-Order Simulator ***
Warmup Instructions: 5000000
Simulation Instructions: 25000000
Number of CPUs: 1
Page size: 4096

Off-chip DRAM Size: 16 GiB Channels: 1 Width: 64-bit Data Rate: 3205 MT/s
Warmup finished CPU 0 instructions: 5000001 cycles: 1471214 cumulative IPC: 3.399 (Simulation time: 00 hr 00 min 18 sec)
Warmup complete CPU 0 instructions: 5000001 cycles: 1471214 cumulative IPC: 3.399 (Simulation time: 00 hr 00 min 18 sec)
Heartbeat CPU 0 instructions: 10000004 cycles: 3926143 heartbeat IPC: 2.547 cumulative IPC: 2.037 (Simulation time: 00 hr 00 min 46 sec)
Heartbeat CPU 0 instructions: 20000005 cycles: 13371265 heartbeat IPC: 1.059 cumulative IPC: 1.26 (Simulation time: 00 hr 02 min 00 sec)
Simulation finished CPU 0 instructions: 25000001 cycles: 19195960 cumulative IPC: 1.302 (Simulation time: 00 hr 03 min 00 sec)
Simulation complete CPU 0 instructions: 25000001 cycles: 19195960 cumulative IPC: 1.302 (Simulation time: 00 hr 03 min 00 sec)

ChampSim completed all CPUs

=== Simulation ===
CPU 0 runs ../../hw2/traces/654.roms_s-293B.champsimtrace.xz

Region of Interest Statistics

CPU 0 cumulative IPC: 1.302 instructions: 25000001 cycles: 19195960
CPU 0 Branch Prediction Accuracy: 99.8% MPKI: 0.02152 Average ROB Occupancy at Mispredict: 336.6
Branch type MPKI
BRANCH_DIRECT_JUMP: 0
BRANCH_INDIRECT: 0
BRANCH_CONDITIONAL: 0.02152
BRANCH_DIRECT_CALL: 0
BRANCH_INDIRECT_CALL: 0
BRANCH_RETURN: 0

cpu0->cpu0_STLB TOTAL        ACCESS:       6403 HIT:       4151 MISS:       2252 MSHR_MERGE:          0
cpu0->cpu0_STLB LOAD         ACCESS:       6403 HIT:       4151 MISS:       2252 MSHR_MERGE:          0
cpu0->cpu0_STLB RFO          ACCESS:          0 HIT:          0 MISS:          0 MSHR_MERGE:          0
cpu0->cpu0_STLB PREFETCH     ACCESS:          0 HIT:          0 MISS:          0 MSHR_MERGE:          0
cpu0->cpu0_STLB WRITE        ACCESS:          0 HIT:          0 MISS:          0 MSHR_MERGE:          0
cpu0->cpu0_STLB TRANSLATION  ACCESS:          0 HIT:          0 MISS:          0 MSHR_MERGE:          0
cpu0->cpu0_STLB PREFETCH REQUESTED:          0 ISSUED:          0 USEFUL:          0 USELESS:          0
cpu0->cpu0_STLB AVERAGE MISS LATENCY: 888.7 cycles
cpu0->cpu0_L2C TOTAL        ACCESS:     401564 HIT:     165508 MISS:     236056 MSHR_MERGE:          0
cpu0->cpu0_L2C LOAD         ACCESS:     146873 HIT:      39221 MISS:     107652 MSHR_MERGE:          0
cpu0->cpu0_L2C RFO          ACCESS:     124939 HIT:        711 MISS:     124228 MSHR_MERGE:          0
cpu0->cpu0_L2C PREFETCH     ACCESS:          0 HIT:          0 MISS:          0 MSHR_MERGE:          0
cpu0->cpu0_L2C WRITE        ACCESS:     125178 HIT:     125083 MISS:         95 MSHR_MERGE:          0
cpu0->cpu0_L2C TRANSLATION  ACCESS:       4574 HIT:        493 MISS:       4081 MSHR_MERGE:          0
cpu0->cpu0_L2C PREFETCH REQUESTED:          0 ISSUED:          0 USEFUL:          0 USELESS:          0
cpu0->cpu0_L2C AVERAGE MISS LATENCY: 173.3 cycles
cpu0->cpu0_L1I TOTAL        ACCESS:    4941638 HIT:    4941630 MISS:          8 MSHR_MERGE:          2
cpu0->cpu0_L1I LOAD         ACCESS:    4941638 HIT:    4941630 MISS:          8 MSHR_MERGE:          2
cpu0->cpu0_L1I RFO          ACCESS:          0 HIT:          0 MISS:          0 MSHR_MERGE:          0
cpu0->cpu0_L1I PREFETCH     ACCESS:          0 HIT:          0 MISS:          0 MSHR_MERGE:          0
cpu0->cpu0_L1I WRITE        ACCESS:          0 HIT:          0 MISS:          0 MSHR_MERGE:          0
cpu0->cpu0_L1I TRANSLATION  ACCESS:          0 HIT:          0 MISS:          0 MSHR_MERGE:          0
cpu0->cpu0_L1I PREFETCH REQUESTED:          0 ISSUED:          0 USEFUL:          0 USELESS:          0
cpu0->cpu0_L1I AVERAGE MISS LATENCY: 198.3 cycles
cpu0->cpu0_L1D TOTAL        ACCESS:    7644481 HIT:    7006156 MISS:     638325 MSHR_MERGE:     361927
cpu0->cpu0_L1D LOAD         ACCESS:    5272230 HIT:    5029867 MISS:     242363 MSHR_MERGE:      95496
cpu0->cpu0_L1D RFO          ACCESS:          0 HIT:          0 MISS:          0 MSHR_MERGE:          0
cpu0->cpu0_L1D PREFETCH     ACCESS:          0 HIT:          0 MISS:          0 MSHR_MERGE:          0
cpu0->cpu0_L1D WRITE        ACCESS:    2366627 HIT:    1975259 MISS:     391368 MSHR_MERGE:     266411
cpu0->cpu0_L1D TRANSLATION  ACCESS:       5624 HIT:       1030 MISS:       4594 MSHR_MERGE:         20
cpu0->cpu0_L1D PREFETCH REQUESTED:          0 ISSUED:          0 USEFUL:          0 USELESS:          0
cpu0->cpu0_L1D AVERAGE MISS LATENCY: 156.9 cycles
cpu0->cpu0_ITLB TOTAL        ACCESS:    3622783 HIT:    3622783 MISS:          0 MSHR_MERGE:          0
cpu0->cpu0_ITLB LOAD         ACCESS:    3622783 HIT:    3622783 MISS:          0 MSHR_MERGE:          0
cpu0->cpu0_ITLB RFO          ACCESS:          0 HIT:          0 MISS:          0 MSHR_MERGE:          0
cpu0->cpu0_ITLB PREFETCH     ACCESS:          0 HIT:          0 MISS:          0 MSHR_MERGE:          0
cpu0->cpu0_ITLB WRITE        ACCESS:          0 HIT:          0 MISS:          0 MSHR_MERGE:          0
cpu0->cpu0_ITLB TRANSLATION  ACCESS:          0 HIT:          0 MISS:          0 MSHR_MERGE:          0
cpu0->cpu0_ITLB PREFETCH REQUESTED:          0 ISSUED:          0 USEFUL:          0 USELESS:          0
cpu0->cpu0_ITLB AVERAGE MISS LATENCY: - cycles
cpu0->cpu0_DTLB TOTAL        ACCESS:    7203198 HIT:    7187358 MISS:      15840 MSHR_MERGE:       9437
cpu0->cpu0_DTLB LOAD         ACCESS:    7203198 HIT:    7187358 MISS:      15840 MSHR_MERGE:       9437
cpu0->cpu0_DTLB RFO          ACCESS:          0 HIT:          0 MISS:          0 MSHR_MERGE:          0
cpu0->cpu0_DTLB PREFETCH     ACCESS:          0 HIT:          0 MISS:          0 MSHR_MERGE:          0
cpu0->cpu0_DTLB WRITE        ACCESS:          0 HIT:          0 MISS:          0 MSHR_MERGE:          0
cpu0->cpu0_DTLB TRANSLATION  ACCESS:          0 HIT:          0 MISS:          0 MSHR_MERGE:          0
cpu0->cpu0_DTLB PREFETCH REQUESTED:          0 ISSUED:          0 USEFUL:          0 USELESS:          0
cpu0->cpu0_DTLB AVERAGE MISS LATENCY: 317.9 cycles
cpu0->LLC TOTAL        ACCESS:     357924 HIT:     197756 MISS:     160168 MSHR_MERGE:          0
cpu0->LLC LOAD         ACCESS:     107652 HIT:      43351 MISS:      64301 MSHR_MERGE:          0
cpu0->LLC RFO          ACCESS:     124228 HIT:      32386 MISS:      91842 MSHR_MERGE:          0
cpu0->LLC PREFETCH     ACCESS:          0 HIT:          0 MISS:          0 MSHR_MERGE:          0
cpu0->LLC WRITE        ACCESS:     121963 HIT:     121946 MISS:         17 MSHR_MERGE:          0
cpu0->LLC TRANSLATION  ACCESS:       4081 HIT:         73 MISS:       4008 MSHR_MERGE:          0
cpu0->LLC PREFETCH REQUESTED:          0 ISSUED:          0 USEFUL:          0 USELESS:          0
cpu0->LLC AVERAGE MISS LATENCY: 232.3 cycles

DRAM Statistics

Channel 0 RQ ROW_BUFFER_HIT:        601
  ROW_BUFFER_MISS:     159328
  AVG DBUS CONGESTED CYCLE: 6.895
Channel 0 WQ ROW_BUFFER_HIT:      29104
  ROW_BUFFER_MISS:      67932
  FULL:          0
Channel 0 REFRESHES ISSUED:       1600
