[VMEM] WARNING: physical memory size is smaller than virtual memory size.

*** ChampSim Multicore Out-of-Order Simulator ***
Warmup Instructions: 5000000
Simulation Instructions: 25000000
Number of CPUs: 1
Page size: 4096

Off-chip DRAM Size: 16 GiB Channels: 1 Width: 64-bit Data Rate: 3205 MT/s
Warmup finished CPU 0 instructions: 5000003 cycles: 1752015 cumulative IPC: 2.854 (Simulation time: 00 hr 00 min 19 sec)
Warmup complete CPU 0 instructions: 5000003 cycles: 1752015 cumulative IPC: 2.854 (Simulation time: 00 hr 00 min 19 sec)
Heartbeat CPU 0 instructions: 10000002 cycles: 20013437 heartbeat IPC: 0.4997 cumulative IPC: 0.2738 (Simulation time: 00 hr 01 min 46 sec)
Heartbeat CPU 0 instructions: 20000002 cycles: 56377611 heartbeat IPC: 0.275 cumulative IPC: 0.2746 (Simulation time: 00 hr 05 min 01 sec)
Heartbeat CPU 0 instructions: 30000004 cycles: 92739143 heartbeat IPC: 0.275 cumulative IPC: 0.2748 (Simulation time: 00 hr 07 min 58 sec)
Simulation finished CPU 0 instructions: 25000001 cycles: 90987128 cumulative IPC: 0.2748 (Simulation time: 00 hr 07 min 58 sec)
Simulation complete CPU 0 instructions: 25000001 cycles: 90987128 cumulative IPC: 0.2748 (Simulation time: 00 hr 07 min 58 sec)

ChampSim completed all CPUs

=== Simulation ===
CPU 0 runs /Users/aleksandrkozlov/Projects/microarch/hw2/traces/602.gcc_s-1850B.champsimtrace.xz

Region of Interest Statistics

CPU 0 cumulative IPC: 0.2748 instructions: 25000001 cycles: 90987128
CPU 0 Branch Prediction Accuracy: 96.49% MPKI: 8.991 Average ROB Occupancy at Mispredict: 55.27
Branch type MPKI
BRANCH_DIRECT_JUMP: 0.01196
BRANCH_INDIRECT: 0
BRANCH_CONDITIONAL: 8.979
BRANCH_DIRECT_CALL: 0
BRANCH_INDIRECT_CALL: 0
BRANCH_RETURN: 0

cpu0->cpu0_STLB TOTAL        ACCESS:       8294 HIT:        659 MISS:       7635 MSHR_MERGE:          0
cpu0->cpu0_STLB LOAD         ACCESS:       8294 HIT:        659 MISS:       7635 MSHR_MERGE:          0
cpu0->cpu0_STLB RFO          ACCESS:          0 HIT:          0 MISS:          0 MSHR_MERGE:          0
cpu0->cpu0_STLB PREFETCH     ACCESS:          0 HIT:          0 MISS:          0 MSHR_MERGE:          0
cpu0->cpu0_STLB WRITE        ACCESS:          0 HIT:          0 MISS:          0 MSHR_MERGE:          0
cpu0->cpu0_STLB TRANSLATION  ACCESS:          0 HIT:          0 MISS:          0 MSHR_MERGE:          0
cpu0->cpu0_STLB PREFETCH REQUESTED:          0 ISSUED:          0 USEFUL:          0 USELESS:          0
cpu0->cpu0_STLB AVERAGE MISS LATENCY: 685.6 cycles
cpu0->cpu0_L2C TOTAL        ACCESS:     614901 HIT:     160540 MISS:     454361 MSHR_MERGE:          0
cpu0->cpu0_L2C LOAD         ACCESS:     603722 HIT:     158684 MISS:     445038 MSHR_MERGE:          0
cpu0->cpu0_L2C RFO          ACCESS:        158 HIT:          0 MISS:        158 MSHR_MERGE:          0
cpu0->cpu0_L2C PREFETCH     ACCESS:          0 HIT:          0 MISS:          0 MSHR_MERGE:          0
cpu0->cpu0_L2C WRITE        ACCESS:       1579 HIT:       1579 MISS:          0 MSHR_MERGE:          0
cpu0->cpu0_L2C TRANSLATION  ACCESS:       9442 HIT:        277 MISS:       9165 MSHR_MERGE:          0
cpu0->cpu0_L2C PREFETCH REQUESTED:          0 ISSUED:          0 USEFUL:          0 USELESS:          0
cpu0->cpu0_L2C AVERAGE MISS LATENCY: 154.6 cycles
cpu0->cpu0_L1I TOTAL        ACCESS:     865652 HIT:     865652 MISS:          0 MSHR_MERGE:          0
cpu0->cpu0_L1I LOAD         ACCESS:     865652 HIT:     865652 MISS:          0 MSHR_MERGE:          0
cpu0->cpu0_L1I RFO          ACCESS:          0 HIT:          0 MISS:          0 MSHR_MERGE:          0
cpu0->cpu0_L1I PREFETCH     ACCESS:          0 HIT:          0 MISS:          0 MSHR_MERGE:          0
cpu0->cpu0_L1I WRITE        ACCESS:          0 HIT:          0 MISS:          0 MSHR_MERGE:          0
cpu0->cpu0_L1I TRANSLATION  ACCESS:          0 HIT:          0 MISS:          0 MSHR_MERGE:          0
cpu0->cpu0_L1I PREFETCH REQUESTED:          0 ISSUED:          0 USEFUL:          0 USELESS:          0
cpu0->cpu0_L1I AVERAGE MISS LATENCY: - cycles
cpu0->cpu0_L1D TOTAL        ACCESS:    6720539 HIT:    5556838 MISS:    1163701 MSHR_MERGE:     550379
cpu0->cpu0_L1D LOAD         ACCESS:    4547662 HIT:    3393563 MISS:    1154099 MSHR_MERGE:     550377
cpu0->cpu0_L1D RFO          ACCESS:          0 HIT:          0 MISS:          0 MSHR_MERGE:          0
cpu0->cpu0_L1D PREFETCH     ACCESS:          0 HIT:          0 MISS:          0 MSHR_MERGE:          0
cpu0->cpu0_L1D WRITE        ACCESS:    2157534 HIT:    2157376 MISS:        158 MSHR_MERGE:          0
cpu0->cpu0_L1D TRANSLATION  ACCESS:      15343 HIT:       5899 MISS:       9444 MSHR_MERGE:          2
cpu0->cpu0_L1D PREFETCH REQUESTED:          0 ISSUED:          0 USEFUL:          0 USELESS:          0
cpu0->cpu0_L1D AVERAGE MISS LATENCY: 123.3 cycles
cpu0->cpu0_ITLB TOTAL        ACCESS:     725082 HIT:     725082 MISS:          0 MSHR_MERGE:          0
cpu0->cpu0_ITLB LOAD         ACCESS:     725082 HIT:     725082 MISS:          0 MSHR_MERGE:          0
cpu0->cpu0_ITLB RFO          ACCESS:          0 HIT:          0 MISS:          0 MSHR_MERGE:          0
cpu0->cpu0_ITLB PREFETCH     ACCESS:          0 HIT:          0 MISS:          0 MSHR_MERGE:          0
cpu0->cpu0_ITLB WRITE        ACCESS:          0 HIT:          0 MISS:          0 MSHR_MERGE:          0
cpu0->cpu0_ITLB TRANSLATION  ACCESS:          0 HIT:          0 MISS:          0 MSHR_MERGE:          0
cpu0->cpu0_ITLB PREFETCH REQUESTED:          0 ISSUED:          0 USEFUL:          0 USELESS:          0
cpu0->cpu0_ITLB AVERAGE MISS LATENCY: - cycles
cpu0->cpu0_DTLB TOTAL        ACCESS:    6199334 HIT:    6182236 MISS:      17098 MSHR_MERGE:       8804
cpu0->cpu0_DTLB LOAD         ACCESS:    6199334 HIT:    6182236 MISS:      17098 MSHR_MERGE:       8804
cpu0->cpu0_DTLB RFO          ACCESS:          0 HIT:          0 MISS:          0 MSHR_MERGE:          0
cpu0->cpu0_DTLB PREFETCH     ACCESS:          0 HIT:          0 MISS:          0 MSHR_MERGE:          0
cpu0->cpu0_DTLB WRITE        ACCESS:          0 HIT:          0 MISS:          0 MSHR_MERGE:          0
cpu0->cpu0_DTLB TRANSLATION  ACCESS:          0 HIT:          0 MISS:          0 MSHR_MERGE:          0
cpu0->cpu0_DTLB PREFETCH REQUESTED:          0 ISSUED:          0 USEFUL:          0 USELESS:          0
cpu0->cpu0_DTLB AVERAGE MISS LATENCY: 637 cycles
cpu0->LLC TOTAL        ACCESS:     455023 HIT:       1332 MISS:     453691 MSHR_MERGE:          0
cpu0->LLC LOAD         ACCESS:     445038 HIT:        630 MISS:     444408 MSHR_MERGE:          0
cpu0->LLC RFO          ACCESS:        158 HIT:          0 MISS:        158 MSHR_MERGE:          0
cpu0->LLC PREFETCH     ACCESS:          0 HIT:          0 MISS:          0 MSHR_MERGE:          0
cpu0->LLC WRITE        ACCESS:        662 HIT:        661 MISS:          1 MSHR_MERGE:          0
cpu0->LLC TRANSLATION  ACCESS:       9165 HIT:         41 MISS:       9124 MSHR_MERGE:          0
cpu0->LLC PREFETCH REQUESTED:          0 ISSUED:          0 USEFUL:          0 USELESS:          0
cpu0->LLC AVERAGE MISS LATENCY: 138.8 cycles

DRAM Statistics

Channel 0 RQ ROW_BUFFER_HIT:     141591
  ROW_BUFFER_MISS:     312100
  AVG DBUS CONGESTED CYCLE: 24.28
Channel 0 WQ ROW_BUFFER_HIT:        220
  ROW_BUFFER_MISS:        466
  FULL:          0
Channel 0 REFRESHES ISSUED:       7582
