[VMEM] WARNING: physical memory size is smaller than virtual memory size.

*** ChampSim Multicore Out-of-Order Simulator ***
Warmup Instructions: 5000000
Simulation Instructions: 25000000
Number of CPUs: 1
Page size: 4096

Off-chip DRAM Size: 16 GiB Channels: 1 Width: 64-bit Data Rate: 3205 MT/s
Warmup finished CPU 0 instructions: 5000003 cycles: 1406444 cumulative IPC: 3.555 (Simulation time: 00 hr 00 min 20 sec)
Warmup complete CPU 0 instructions: 5000003 cycles: 1406444 cumulative IPC: 3.555 (Simulation time: 00 hr 00 min 20 sec)
Heartbeat CPU 0 instructions: 10000004 cycles: 7042445 heartbeat IPC: 1.42 cumulative IPC: 0.8872 (Simulation time: 00 hr 01 min 06 sec)
Heartbeat CPU 0 instructions: 20000004 cycles: 18234659 heartbeat IPC: 0.8935 cumulative IPC: 0.8914 (Simulation time: 00 hr 02 min 46 sec)
Heartbeat CPU 0 instructions: 30000005 cycles: 29431864 heartbeat IPC: 0.8931 cumulative IPC: 0.892 (Simulation time: 00 hr 04 min 32 sec)
Simulation finished CPU 0 instructions: 25000002 cycles: 28025420 cumulative IPC: 0.892 (Simulation time: 00 hr 04 min 32 sec)
Simulation complete CPU 0 instructions: 25000002 cycles: 28025420 cumulative IPC: 0.892 (Simulation time: 00 hr 04 min 32 sec)

ChampSim completed all CPUs

=== Simulation ===
CPU 0 runs /Users/aleksandrkozlov/Projects/microarch/hw2/traces/603.bwaves_s-2931B.champsimtrace.xz

Region of Interest Statistics

CPU 0 cumulative IPC: 0.892 instructions: 25000002 cycles: 28025420
CPU 0 Branch Prediction Accuracy: 96.74% MPKI: 0.275 Average ROB Occupancy at Mispredict: 348.5
Branch type MPKI
BRANCH_DIRECT_JUMP: 0
BRANCH_INDIRECT: 0
BRANCH_CONDITIONAL: 0.275
BRANCH_DIRECT_CALL: 0
BRANCH_INDIRECT_CALL: 0
BRANCH_RETURN: 0

cpu0->cpu0_STLB TOTAL        ACCESS:      46473 HIT:      41141 MISS:       5332 MSHR_MERGE:          0
cpu0->cpu0_STLB LOAD         ACCESS:      46473 HIT:      41141 MISS:       5332 MSHR_MERGE:          0
cpu0->cpu0_STLB RFO          ACCESS:          0 HIT:          0 MISS:          0 MSHR_MERGE:          0
cpu0->cpu0_STLB PREFETCH     ACCESS:          0 HIT:          0 MISS:          0 MSHR_MERGE:          0
cpu0->cpu0_STLB WRITE        ACCESS:          0 HIT:          0 MISS:          0 MSHR_MERGE:          0
cpu0->cpu0_STLB TRANSLATION  ACCESS:          0 HIT:          0 MISS:          0 MSHR_MERGE:          0
cpu0->cpu0_STLB PREFETCH REQUESTED:          0 ISSUED:          0 USEFUL:          0 USELESS:          0
cpu0->cpu0_STLB AVERAGE MISS LATENCY: 702.4 cycles
cpu0->cpu0_L2C TOTAL        ACCESS:     587899 HIT:     214291 MISS:     373608 MSHR_MERGE:          0
cpu0->cpu0_L2C LOAD         ACCESS:     259263 HIT:      40669 MISS:     218594 MSHR_MERGE:          0
cpu0->cpu0_L2C RFO          ACCESS:     158056 HIT:       9215 MISS:     148841 MSHR_MERGE:          0
cpu0->cpu0_L2C PREFETCH     ACCESS:          0 HIT:          0 MISS:          0 MSHR_MERGE:          0
cpu0->cpu0_L2C WRITE        ACCESS:     159945 HIT:     159925 MISS:         20 MSHR_MERGE:          0
cpu0->cpu0_L2C TRANSLATION  ACCESS:      10635 HIT:       4482 MISS:       6153 MSHR_MERGE:          0
cpu0->cpu0_L2C PREFETCH REQUESTED:          0 ISSUED:          0 USEFUL:          0 USELESS:          0
cpu0->cpu0_L2C AVERAGE MISS LATENCY: 225 cycles
cpu0->cpu0_L1I TOTAL        ACCESS:    4544564 HIT:    4544556 MISS:          8 MSHR_MERGE:          1
cpu0->cpu0_L1I LOAD         ACCESS:    4544564 HIT:    4544556 MISS:          8 MSHR_MERGE:          1
cpu0->cpu0_L1I RFO          ACCESS:          0 HIT:          0 MISS:          0 MSHR_MERGE:          0
cpu0->cpu0_L1I PREFETCH     ACCESS:          0 HIT:          0 MISS:          0 MSHR_MERGE:          0
cpu0->cpu0_L1I WRITE        ACCESS:          0 HIT:          0 MISS:          0 MSHR_MERGE:          0
cpu0->cpu0_L1I TRANSLATION  ACCESS:          0 HIT:          0 MISS:          0 MSHR_MERGE:          0
cpu0->cpu0_L1I PREFETCH REQUESTED:          0 ISSUED:          0 USEFUL:          0 USELESS:          0
cpu0->cpu0_L1I AVERAGE MISS LATENCY: 236.4 cycles
cpu0->cpu0_L1D TOTAL        ACCESS:    8313209 HIT:    7503209 MISS:     810000 MSHR_MERGE:     381899
cpu0->cpu0_L1D LOAD         ACCESS:    3729321 HIT:    3467604 MISS:     261717 MSHR_MERGE:       2459
cpu0->cpu0_L1D RFO          ACCESS:          0 HIT:          0 MISS:          0 MSHR_MERGE:          0
cpu0->cpu0_L1D PREFETCH     ACCESS:          0 HIT:          0 MISS:          0 MSHR_MERGE:          0
cpu0->cpu0_L1D WRITE        ACCESS:    4573207 HIT:    4035559 MISS:     537648 MSHR_MERGE:     379440
cpu0->cpu0_L1D TRANSLATION  ACCESS:      10681 HIT:         46 MISS:      10635 MSHR_MERGE:          0
cpu0->cpu0_L1D PREFETCH REQUESTED:          0 ISSUED:          0 USEFUL:          0 USELESS:          0
cpu0->cpu0_L1D AVERAGE MISS LATENCY: 205.3 cycles
cpu0->cpu0_ITLB TOTAL        ACCESS:    3597884 HIT:    3597884 MISS:          0 MSHR_MERGE:          0
cpu0->cpu0_ITLB LOAD         ACCESS:    3597884 HIT:    3597884 MISS:          0 MSHR_MERGE:          0
cpu0->cpu0_ITLB RFO          ACCESS:          0 HIT:          0 MISS:          0 MSHR_MERGE:          0
cpu0->cpu0_ITLB PREFETCH     ACCESS:          0 HIT:          0 MISS:          0 MSHR_MERGE:          0
cpu0->cpu0_ITLB WRITE        ACCESS:          0 HIT:          0 MISS:          0 MSHR_MERGE:          0
cpu0->cpu0_ITLB TRANSLATION  ACCESS:          0 HIT:          0 MISS:          0 MSHR_MERGE:          0
cpu0->cpu0_ITLB PREFETCH REQUESTED:          0 ISSUED:          0 USEFUL:          0 USELESS:          0
cpu0->cpu0_ITLB AVERAGE MISS LATENCY: - cycles
cpu0->cpu0_DTLB TOTAL        ACCESS:    7656603 HIT:    7604897 MISS:      51706 MSHR_MERGE:       5233
cpu0->cpu0_DTLB LOAD         ACCESS:    7656603 HIT:    7604897 MISS:      51706 MSHR_MERGE:       5233
cpu0->cpu0_DTLB RFO          ACCESS:          0 HIT:          0 MISS:          0 MSHR_MERGE:          0
cpu0->cpu0_DTLB PREFETCH     ACCESS:          0 HIT:          0 MISS:          0 MSHR_MERGE:          0
cpu0->cpu0_DTLB WRITE        ACCESS:          0 HIT:          0 MISS:          0 MSHR_MERGE:          0
cpu0->cpu0_DTLB TRANSLATION  ACCESS:          0 HIT:          0 MISS:          0 MSHR_MERGE:          0
cpu0->cpu0_DTLB PREFETCH REQUESTED:          0 ISSUED:          0 USEFUL:          0 USELESS:          0
cpu0->cpu0_DTLB AVERAGE MISS LATENCY: 85.72 cycles
cpu0->LLC TOTAL        ACCESS:     522553 HIT:     175130 MISS:     347423 MSHR_MERGE:          0
cpu0->LLC LOAD         ACCESS:     218594 HIT:      26178 MISS:     192416 MSHR_MERGE:          0
cpu0->LLC RFO          ACCESS:     148841 HIT:          0 MISS:     148841 MSHR_MERGE:          0
cpu0->LLC PREFETCH     ACCESS:          0 HIT:          0 MISS:          0 MSHR_MERGE:          0
cpu0->LLC WRITE        ACCESS:     148965 HIT:     148952 MISS:         13 MSHR_MERGE:          0
cpu0->LLC TRANSLATION  ACCESS:       6153 HIT:          0 MISS:       6153 MSHR_MERGE:          0
cpu0->LLC PREFETCH REQUESTED:          0 ISSUED:          0 USEFUL:          0 USELESS:          0
cpu0->LLC AVERAGE MISS LATENCY: 224.8 cycles

DRAM Statistics

Channel 0 RQ ROW_BUFFER_HIT:         13
  ROW_BUFFER_MISS:     347396
  AVG DBUS CONGESTED CYCLE: 10.78
Channel 0 WQ ROW_BUFFER_HIT:      52992
  ROW_BUFFER_MISS:      96578
  FULL:          0
Channel 0 REFRESHES ISSUED:       2335
