[VMEM] WARNING: physical memory size is smaller than virtual memory size.

*** ChampSim Multicore Out-of-Order Simulator ***
Warmup Instructions: 5000000
Simulation Instructions: 25000000
Number of CPUs: 1
Page size: 4096

Off-chip DRAM Size: 16 GiB Channels: 1 Width: 64-bit Data Rate: 3205 MT/s
Warmup finished CPU 0 instructions: 5000001 cycles: 2093685 cumulative IPC: 2.388 (Simulation time: 00 hr 00 min 23 sec)
Warmup complete CPU 0 instructions: 5000001 cycles: 2093685 cumulative IPC: 2.388 (Simulation time: 00 hr 00 min 23 sec)
Heartbeat CPU 0 instructions: 10000003 cycles: 23392820 heartbeat IPC: 0.4275 cumulative IPC: 0.2348 (Simulation time: 00 hr 03 min 19 sec)
Heartbeat CPU 0 instructions: 20000003 cycles: 64881868 heartbeat IPC: 0.241 cumulative IPC: 0.2389 (Simulation time: 00 hr 09 min 04 sec)
Simulation finished CPU 0 instructions: 25000001 cycles: 104044945 cumulative IPC: 0.2403 (Simulation time: 00 hr 13 min 22 sec)
Simulation complete CPU 0 instructions: 25000001 cycles: 104044945 cumulative IPC: 0.2403 (Simulation time: 00 hr 13 min 22 sec)

ChampSim completed all CPUs

=== Simulation ===
CPU 0 runs /Users/aleksandrkozlov/Projects/microarch/hw2/traces/605.mcf_s-1536B.champsimtrace.xz

Region of Interest Statistics

CPU 0 cumulative IPC: 0.2403 instructions: 25000001 cycles: 104044945
CPU 0 Branch Prediction Accuracy: 99.98% MPKI: 0.03748 Average ROB Occupancy at Mispredict: 191
Branch type MPKI
BRANCH_DIRECT_JUMP: 0
BRANCH_INDIRECT: 0
BRANCH_CONDITIONAL: 0.03748
BRANCH_DIRECT_CALL: 0
BRANCH_INDIRECT_CALL: 0
BRANCH_RETURN: 0

cpu0->cpu0_STLB TOTAL        ACCESS:     691043 HIT:     130044 MISS:     560999 MSHR_MERGE:          0
cpu0->cpu0_STLB LOAD         ACCESS:     691043 HIT:     130044 MISS:     560999 MSHR_MERGE:          0
cpu0->cpu0_STLB RFO          ACCESS:          0 HIT:          0 MISS:          0 MSHR_MERGE:          0
cpu0->cpu0_STLB PREFETCH     ACCESS:          0 HIT:          0 MISS:          0 MSHR_MERGE:          0
cpu0->cpu0_STLB WRITE        ACCESS:          0 HIT:          0 MISS:          0 MSHR_MERGE:          0
cpu0->cpu0_STLB TRANSLATION  ACCESS:          0 HIT:          0 MISS:          0 MSHR_MERGE:          0
cpu0->cpu0_STLB PREFETCH REQUESTED:          0 ISSUED:          0 USEFUL:          0 USELESS:          0
cpu0->cpu0_STLB AVERAGE MISS LATENCY: 84.46 cycles
cpu0->cpu0_L2C TOTAL        ACCESS:    2899978 HIT:    1219052 MISS:    1680926 MSHR_MERGE:          0
cpu0->cpu0_L2C LOAD         ACCESS:    1154552 HIT:     403965 MISS:     750587 MSHR_MERGE:          0
cpu0->cpu0_L2C RFO          ACCESS:      71346 HIT:      19096 MISS:      52250 MSHR_MERGE:          0
cpu0->cpu0_L2C PREFETCH     ACCESS:          0 HIT:          0 MISS:          0 MSHR_MERGE:          0
cpu0->cpu0_L2C WRITE        ACCESS:     556351 HIT:     556350 MISS:          1 MSHR_MERGE:          0
cpu0->cpu0_L2C TRANSLATION  ACCESS:    1117729 HIT:     239641 MISS:     878088 MSHR_MERGE:          0
cpu0->cpu0_L2C PREFETCH REQUESTED:          0 ISSUED:          0 USEFUL:          0 USELESS:          0
cpu0->cpu0_L2C AVERAGE MISS LATENCY: 108.4 cycles
cpu0->cpu0_L1I TOTAL        ACCESS:    5556473 HIT:    5556473 MISS:          0 MSHR_MERGE:          0
cpu0->cpu0_L1I LOAD         ACCESS:    5556473 HIT:    5556473 MISS:          0 MSHR_MERGE:          0
cpu0->cpu0_L1I RFO          ACCESS:          0 HIT:          0 MISS:          0 MSHR_MERGE:          0
cpu0->cpu0_L1I PREFETCH     ACCESS:          0 HIT:          0 MISS:          0 MSHR_MERGE:          0
cpu0->cpu0_L1I WRITE        ACCESS:          0 HIT:          0 MISS:          0 MSHR_MERGE:          0
cpu0->cpu0_L1I TRANSLATION  ACCESS:          0 HIT:          0 MISS:          0 MSHR_MERGE:          0
cpu0->cpu0_L1I PREFETCH REQUESTED:          0 ISSUED:          0 USEFUL:          0 USELESS:          0
cpu0->cpu0_L1I AVERAGE MISS LATENCY: - cycles
cpu0->cpu0_L1D TOTAL        ACCESS:    7303767 HIT:    4117189 MISS:    3186578 MSHR_MERGE:     842939
cpu0->cpu0_L1D LOAD         ACCESS:    4987393 HIT:    3001247 MISS:    1986146 MSHR_MERGE:     831593
cpu0->cpu0_L1D RFO          ACCESS:          0 HIT:          0 MISS:          0 MSHR_MERGE:          0
cpu0->cpu0_L1D PREFETCH     ACCESS:          0 HIT:          0 MISS:          0 MSHR_MERGE:          0
cpu0->cpu0_L1D WRITE        ACCESS:    1108563 HIT:    1037177 MISS:      71386 MSHR_MERGE:         29
cpu0->cpu0_L1D TRANSLATION  ACCESS:    1207811 HIT:      78765 MISS:    1129046 MSHR_MERGE:      11317
cpu0->cpu0_L1D PREFETCH REQUESTED:          0 ISSUED:          0 USEFUL:          0 USELESS:          0
cpu0->cpu0_L1D AVERAGE MISS LATENCY: 86.61 cycles
cpu0->cpu0_ITLB TOTAL        ACCESS:    4979217 HIT:    4979217 MISS:          0 MSHR_MERGE:          0
cpu0->cpu0_ITLB LOAD         ACCESS:    4979217 HIT:    4979217 MISS:          0 MSHR_MERGE:          0
cpu0->cpu0_ITLB RFO          ACCESS:          0 HIT:          0 MISS:          0 MSHR_MERGE:          0
cpu0->cpu0_ITLB PREFETCH     ACCESS:          0 HIT:          0 MISS:          0 MSHR_MERGE:          0
cpu0->cpu0_ITLB WRITE        ACCESS:          0 HIT:          0 MISS:          0 MSHR_MERGE:          0
cpu0->cpu0_ITLB TRANSLATION  ACCESS:          0 HIT:          0 MISS:          0 MSHR_MERGE:          0
cpu0->cpu0_ITLB PREFETCH REQUESTED:          0 ISSUED:          0 USEFUL:          0 USELESS:          0
cpu0->cpu0_ITLB AVERAGE MISS LATENCY: - cycles
cpu0->cpu0_DTLB TOTAL        ACCESS:    6050139 HIT:    4360232 MISS:    1689907 MSHR_MERGE:     998864
cpu0->cpu0_DTLB LOAD         ACCESS:    6050139 HIT:    4360232 MISS:    1689907 MSHR_MERGE:     998864
cpu0->cpu0_DTLB RFO          ACCESS:          0 HIT:          0 MISS:          0 MSHR_MERGE:          0
cpu0->cpu0_DTLB PREFETCH     ACCESS:          0 HIT:          0 MISS:          0 MSHR_MERGE:          0
cpu0->cpu0_DTLB WRITE        ACCESS:          0 HIT:          0 MISS:          0 MSHR_MERGE:          0
cpu0->cpu0_DTLB TRANSLATION  ACCESS:          0 HIT:          0 MISS:          0 MSHR_MERGE:          0
cpu0->cpu0_DTLB PREFETCH REQUESTED:          0 ISSUED:          0 USEFUL:          0 USELESS:          0
cpu0->cpu0_DTLB AVERAGE MISS LATENCY: 74.38 cycles
cpu0->LLC TOTAL        ACCESS:    2235296 HIT:    1551278 MISS:     684018 MSHR_MERGE:          0
cpu0->LLC LOAD         ACCESS:     750587 HIT:     115773 MISS:     634814 MSHR_MERGE:          0
cpu0->LLC RFO          ACCESS:      52250 HIT:      52244 MISS:          6 MSHR_MERGE:          0
cpu0->LLC PREFETCH     ACCESS:          0 HIT:          0 MISS:          0 MSHR_MERGE:          0
cpu0->LLC WRITE        ACCESS:     554371 HIT:     554371 MISS:          0 MSHR_MERGE:          0
cpu0->LLC TRANSLATION  ACCESS:     878088 HIT:     828890 MISS:      49198 MSHR_MERGE:          0
cpu0->LLC PREFETCH REQUESTED:          0 ISSUED:          0 USEFUL:          0 USELESS:          0
cpu0->LLC AVERAGE MISS LATENCY: 228.6 cycles

DRAM Statistics

Channel 0 RQ ROW_BUFFER_HIT:        142
  ROW_BUFFER_MISS:     683876
  AVG DBUS CONGESTED CYCLE: 5.826
Channel 0 WQ ROW_BUFFER_HIT:     181534
  ROW_BUFFER_MISS:     372681
  FULL:          0
Channel 0 REFRESHES ISSUED:       8670
