[VMEM] WARNING: physical memory size is smaller than virtual memory size.

*** ChampSim Multicore Out-of-Order Simulator ***
Warmup Instructions: 5000000
Simulation Instructions: 25000000
Number of CPUs: 1
Page size: 4096

Off-chip DRAM Size: 16 GiB Channels: 1 Width: 64-bit Data Rate: 3205 MT/s
Warmup finished CPU 0 instructions: 5000001 cycles: 1775748 cumulative IPC: 2.816 (Simulation time: 00 hr 00 min 21 sec)
Warmup complete CPU 0 instructions: 5000001 cycles: 1775748 cumulative IPC: 2.816 (Simulation time: 00 hr 00 min 21 sec)
Heartbeat CPU 0 instructions: 10000001 cycles: 12679743 heartbeat IPC: 0.7887 cumulative IPC: 0.4585 (Simulation time: 00 hr 02 min 00 sec)
Heartbeat CPU 0 instructions: 20000001 cycles: 34002478 heartbeat IPC: 0.469 cumulative IPC: 0.4655 (Simulation time: 00 hr 05 min 39 sec)
Heartbeat CPU 0 instructions: 30000003 cycles: 54972156 heartbeat IPC: 0.4769 cumulative IPC: 0.47 (Simulation time: 00 hr 08 min 50 sec)
Simulation finished CPU 0 instructions: 25000002 cycles: 53196408 cumulative IPC: 0.47 (Simulation time: 00 hr 08 min 50 sec)
Simulation complete CPU 0 instructions: 25000002 cycles: 53196408 cumulative IPC: 0.47 (Simulation time: 00 hr 08 min 50 sec)

ChampSim completed all CPUs

=== Simulation ===
CPU 0 runs /Users/aleksandrkozlov/Projects/microarch/hw2/traces/619.lbm_s-2676B.champsimtrace.xz

Region of Interest Statistics

CPU 0 cumulative IPC: 0.47 instructions: 25000002 cycles: 53196408
CPU 0 Branch Prediction Accuracy: 97.36% MPKI: 0.4462 Average ROB Occupancy at Mispredict: 244
Branch type MPKI
BRANCH_DIRECT_JUMP: 0
BRANCH_INDIRECT: 0
BRANCH_CONDITIONAL: 0.4462
BRANCH_DIRECT_CALL: 0
BRANCH_INDIRECT_CALL: 0
BRANCH_RETURN: 0

cpu0->cpu0_STLB TOTAL        ACCESS:      31491 HIT:      14402 MISS:      17089 MSHR_MERGE:          0
cpu0->cpu0_STLB LOAD         ACCESS:      31491 HIT:      14402 MISS:      17089 MSHR_MERGE:          0
cpu0->cpu0_STLB RFO          ACCESS:          0 HIT:          0 MISS:          0 MSHR_MERGE:          0
cpu0->cpu0_STLB PREFETCH     ACCESS:          0 HIT:          0 MISS:          0 MSHR_MERGE:          0
cpu0->cpu0_STLB WRITE        ACCESS:          0 HIT:          0 MISS:          0 MSHR_MERGE:          0
cpu0->cpu0_STLB TRANSLATION  ACCESS:          0 HIT:          0 MISS:          0 MSHR_MERGE:          0
cpu0->cpu0_STLB PREFETCH REQUESTED:          0 ISSUED:          0 USEFUL:          0 USELESS:          0
cpu0->cpu0_STLB AVERAGE MISS LATENCY: 944.4 cycles
cpu0->cpu0_L2C TOTAL        ACCESS:    3375807 HIT:    2236331 MISS:    1139476 MSHR_MERGE:          0
cpu0->cpu0_L2C LOAD         ACCESS:     273387 HIT:         17 MISS:     273370 MSHR_MERGE:          0
cpu0->cpu0_L2C RFO          ACCESS:    1541571 HIT:     694709 MISS:     846862 MSHR_MERGE:          0
cpu0->cpu0_L2C PREFETCH     ACCESS:          0 HIT:          0 MISS:          0 MSHR_MERGE:          0
cpu0->cpu0_L2C WRITE        ACCESS:    1541605 HIT:    1541605 MISS:          0 MSHR_MERGE:          0
cpu0->cpu0_L2C TRANSLATION  ACCESS:      19244 HIT:          0 MISS:      19244 MSHR_MERGE:          0
cpu0->cpu0_L2C PREFETCH REQUESTED:          0 ISSUED:          0 USEFUL:          0 USELESS:          0
cpu0->cpu0_L2C AVERAGE MISS LATENCY: 483.2 cycles
cpu0->cpu0_L1I TOTAL        ACCESS:    4082180 HIT:    4082180 MISS:          0 MSHR_MERGE:          0
cpu0->cpu0_L1I LOAD         ACCESS:    4082180 HIT:    4082180 MISS:          0 MSHR_MERGE:          0
cpu0->cpu0_L1I RFO          ACCESS:          0 HIT:          0 MISS:          0 MSHR_MERGE:          0
cpu0->cpu0_L1I PREFETCH     ACCESS:          0 HIT:          0 MISS:          0 MSHR_MERGE:          0
cpu0->cpu0_L1I WRITE        ACCESS:          0 HIT:          0 MISS:          0 MSHR_MERGE:          0
cpu0->cpu0_L1I TRANSLATION  ACCESS:          0 HIT:          0 MISS:          0 MSHR_MERGE:          0
cpu0->cpu0_L1I PREFETCH REQUESTED:          0 ISSUED:          0 USEFUL:          0 USELESS:          0
cpu0->cpu0_L1I AVERAGE MISS LATENCY: - cycles
cpu0->cpu0_L1D TOTAL        ACCESS:    6043203 HIT:    3794134 MISS:    2249069 MSHR_MERGE:     414838
cpu0->cpu0_L1D LOAD         ACCESS:    1552446 HIT:     937066 MISS:     615380 MSHR_MERGE:     341993
cpu0->cpu0_L1D RFO          ACCESS:          0 HIT:          0 MISS:          0 MSHR_MERGE:          0
cpu0->cpu0_L1D PREFETCH     ACCESS:          0 HIT:          0 MISS:          0 MSHR_MERGE:          0
cpu0->cpu0_L1D WRITE        ACCESS:    4456561 HIT:    2842116 MISS:    1614445 MSHR_MERGE:      72845
cpu0->cpu0_L1D TRANSLATION  ACCESS:      34196 HIT:      14952 MISS:      19244 MSHR_MERGE:          0
cpu0->cpu0_L1D PREFETCH REQUESTED:          0 ISSUED:          0 USEFUL:          0 USELESS:          0
cpu0->cpu0_L1D AVERAGE MISS LATENCY: 309.7 cycles
cpu0->cpu0_ITLB TOTAL        ACCESS:    3050160 HIT:    3050160 MISS:          0 MSHR_MERGE:          0
cpu0->cpu0_ITLB LOAD         ACCESS:    3050160 HIT:    3050160 MISS:          0 MSHR_MERGE:          0
cpu0->cpu0_ITLB RFO          ACCESS:          0 HIT:          0 MISS:          0 MSHR_MERGE:          0
cpu0->cpu0_ITLB PREFETCH     ACCESS:          0 HIT:          0 MISS:          0 MSHR_MERGE:          0
cpu0->cpu0_ITLB WRITE        ACCESS:          0 HIT:          0 MISS:          0 MSHR_MERGE:          0
cpu0->cpu0_ITLB TRANSLATION  ACCESS:          0 HIT:          0 MISS:          0 MSHR_MERGE:          0
cpu0->cpu0_ITLB PREFETCH REQUESTED:          0 ISSUED:          0 USEFUL:          0 USELESS:          0
cpu0->cpu0_ITLB AVERAGE MISS LATENCY: - cycles
cpu0->cpu0_DTLB TOTAL        ACCESS:    5657802 HIT:    5562721 MISS:      95081 MSHR_MERGE:      63590
cpu0->cpu0_DTLB LOAD         ACCESS:    5657802 HIT:    5562721 MISS:      95081 MSHR_MERGE:      63590
cpu0->cpu0_DTLB RFO          ACCESS:          0 HIT:          0 MISS:          0 MSHR_MERGE:          0
cpu0->cpu0_DTLB PREFETCH     ACCESS:          0 HIT:          0 MISS:          0 MSHR_MERGE:          0
cpu0->cpu0_DTLB WRITE        ACCESS:          0 HIT:          0 MISS:          0 MSHR_MERGE:          0
cpu0->cpu0_DTLB TRANSLATION  ACCESS:          0 HIT:          0 MISS:          0 MSHR_MERGE:          0
cpu0->cpu0_DTLB PREFETCH REQUESTED:          0 ISSUED:          0 USEFUL:          0 USELESS:          0
cpu0->cpu0_DTLB AVERAGE MISS LATENCY: 518.1 cycles
cpu0->LLC TOTAL        ACCESS:    1986363 HIT:     873735 MISS:    1112628 MSHR_MERGE:          0
cpu0->LLC LOAD         ACCESS:     273370 HIT:          5 MISS:     273365 MSHR_MERGE:          0
cpu0->LLC RFO          ACCESS:     846862 HIT:      26847 MISS:     820015 MSHR_MERGE:          0
cpu0->LLC PREFETCH     ACCESS:          0 HIT:          0 MISS:          0 MSHR_MERGE:          0
cpu0->LLC WRITE        ACCESS:     846887 HIT:     846883 MISS:          4 MSHR_MERGE:          0
cpu0->LLC TRANSLATION  ACCESS:      19244 HIT:          0 MISS:      19244 MSHR_MERGE:          0
cpu0->LLC PREFETCH REQUESTED:          0 ISSUED:          0 USEFUL:          0 USELESS:          0
cpu0->LLC AVERAGE MISS LATENCY: 478.4 cycles

DRAM Statistics

Channel 0 RQ ROW_BUFFER_HIT:      57768
  ROW_BUFFER_MISS:    1054856
  AVG DBUS CONGESTED CYCLE: 7.205
Channel 0 WQ ROW_BUFFER_HIT:     132514
  ROW_BUFFER_MISS:     687620
  FULL:          0
Channel 0 REFRESHES ISSUED:       4434
