[VMEM] WARNING: physical memory size is smaller than virtual memory size.

*** ChampSim Multicore Out-of-Order Simulator ***
Warmup Instructions: 5000000
Simulation Instructions: 25000000
Number of CPUs: 1
Page size: 4096

Off-chip DRAM Size: 16 GiB Channels: 1 Width: 64-bit Data Rate: 3205 MT/s
Warmup finished CPU 0 instructions: 5000003 cycles: 3492063 cumulative IPC: 1.432 (Simulation time: 00 hr 00 min 36 sec)
Warmup complete CPU 0 instructions: 5000003 cycles: 3492063 cumulative IPC: 1.432 (Simulation time: 00 hr 00 min 36 sec)
Heartbeat CPU 0 instructions: 10000004 cycles: 22509110 heartbeat IPC: 0.4443 cumulative IPC: 0.2629 (Simulation time: 00 hr 02 min 11 sec)
Heartbeat CPU 0 instructions: 20000007 cycles: 61406009 heartbeat IPC: 0.2571 cumulative IPC: 0.259 (Simulation time: 00 hr 05 min 49 sec)
Simulation finished CPU 0 instructions: 25000001 cycles: 94415661 cumulative IPC: 0.2648 (Simulation time: 00 hr 08 min 48 sec)
Simulation complete CPU 0 instructions: 25000001 cycles: 94415661 cumulative IPC: 0.2648 (Simulation time: 00 hr 08 min 48 sec)

ChampSim completed all CPUs

=== Simulation ===
CPU 0 runs /Users/aleksandrkozlov/Projects/microarch/hw2/traces/620.omnetpp_s-141B.champsimtrace.xz

Region of Interest Statistics

CPU 0 cumulative IPC: 0.2648 instructions: 25000001 cycles: 94415661
CPU 0 Branch Prediction Accuracy: 93.18% MPKI: 14.37 Average ROB Occupancy at Mispredict: 42.63
Branch type MPKI
BRANCH_DIRECT_JUMP: 0.8414
BRANCH_INDIRECT: 0.3648
BRANCH_CONDITIONAL: 11.87
BRANCH_DIRECT_CALL: 0.00052
BRANCH_INDIRECT_CALL: 0.8609
BRANCH_RETURN: 0.4358

cpu0->cpu0_STLB TOTAL        ACCESS:     563111 HIT:     442638 MISS:     120473 MSHR_MERGE:          0
cpu0->cpu0_STLB LOAD         ACCESS:     563111 HIT:     442638 MISS:     120473 MSHR_MERGE:          0
cpu0->cpu0_STLB RFO          ACCESS:          0 HIT:          0 MISS:          0 MSHR_MERGE:          0
cpu0->cpu0_STLB PREFETCH     ACCESS:          0 HIT:          0 MISS:          0 MSHR_MERGE:          0
cpu0->cpu0_STLB WRITE        ACCESS:          0 HIT:          0 MISS:          0 MSHR_MERGE:          0
cpu0->cpu0_STLB TRANSLATION  ACCESS:          0 HIT:          0 MISS:          0 MSHR_MERGE:          0
cpu0->cpu0_STLB PREFETCH REQUESTED:          0 ISSUED:          0 USEFUL:          0 USELESS:          0
cpu0->cpu0_STLB AVERAGE MISS LATENCY: 361.2 cycles
cpu0->cpu0_L2C TOTAL        ACCESS:    1017997 HIT:     448141 MISS:     569856 MSHR_MERGE:          0
cpu0->cpu0_L2C LOAD         ACCESS:     451582 HIT:     131996 MISS:     319586 MSHR_MERGE:          0
cpu0->cpu0_L2C RFO          ACCESS:      58280 HIT:      11661 MISS:      46619 MSHR_MERGE:          0
cpu0->cpu0_L2C PREFETCH     ACCESS:          0 HIT:          0 MISS:          0 MSHR_MERGE:          0
cpu0->cpu0_L2C WRITE        ACCESS:     240260 HIT:     239723 MISS:        537 MSHR_MERGE:          0
cpu0->cpu0_L2C TRANSLATION  ACCESS:     267875 HIT:      64761 MISS:     203114 MSHR_MERGE:          0
cpu0->cpu0_L2C PREFETCH REQUESTED:          0 ISSUED:          0 USEFUL:          0 USELESS:          0
cpu0->cpu0_L2C AVERAGE MISS LATENCY: 154.9 cycles
cpu0->cpu0_L1I TOTAL        ACCESS:    3350568 HIT:    3332620 MISS:      17948 MSHR_MERGE:       4020
cpu0->cpu0_L1I LOAD         ACCESS:    3350568 HIT:    3332620 MISS:      17948 MSHR_MERGE:       4020
cpu0->cpu0_L1I RFO          ACCESS:          0 HIT:          0 MISS:          0 MSHR_MERGE:          0
cpu0->cpu0_L1I PREFETCH     ACCESS:          0 HIT:          0 MISS:          0 MSHR_MERGE:          0
cpu0->cpu0_L1I WRITE        ACCESS:          0 HIT:          0 MISS:          0 MSHR_MERGE:          0
cpu0->cpu0_L1I TRANSLATION  ACCESS:          0 HIT:          0 MISS:          0 MSHR_MERGE:          0
cpu0->cpu0_L1I PREFETCH REQUESTED:          0 ISSUED:          0 USEFUL:          0 USELESS:          0
cpu0->cpu0_L1I AVERAGE MISS LATENCY: 18.62 cycles
cpu0->cpu0_L1D TOTAL        ACCESS:   10254932 HIT:    9224107 MISS:    1030825 MSHR_MERGE:     267015
cpu0->cpu0_L1D LOAD         ACCESS:    5438613 HIT:    4856311 MISS:     582302 MSHR_MERGE:     144647
cpu0->cpu0_L1D RFO          ACCESS:          0 HIT:          0 MISS:          0 MSHR_MERGE:          0
cpu0->cpu0_L1D PREFETCH     ACCESS:          0 HIT:          0 MISS:          0 MSHR_MERGE:          0
cpu0->cpu0_L1D WRITE        ACCESS:    4526164 HIT:    4346207 MISS:     179957 MSHR_MERGE:     121677
cpu0->cpu0_L1D TRANSLATION  ACCESS:     290155 HIT:      21589 MISS:     268566 MSHR_MERGE:        691
cpu0->cpu0_L1D PREFETCH REQUESTED:          0 ISSUED:          0 USEFUL:          0 USELESS:          0
cpu0->cpu0_L1D AVERAGE MISS LATENCY: 124.1 cycles
cpu0->cpu0_ITLB TOTAL        ACCESS:    2955348 HIT:    2880591 MISS:      74757 MSHR_MERGE:      34186
cpu0->cpu0_ITLB LOAD         ACCESS:    2955348 HIT:    2880591 MISS:      74757 MSHR_MERGE:      34186
cpu0->cpu0_ITLB RFO          ACCESS:          0 HIT:          0 MISS:          0 MSHR_MERGE:          0
cpu0->cpu0_ITLB PREFETCH     ACCESS:          0 HIT:          0 MISS:          0 MSHR_MERGE:          0
cpu0->cpu0_ITLB WRITE        ACCESS:          0 HIT:          0 MISS:          0 MSHR_MERGE:          0
cpu0->cpu0_ITLB TRANSLATION  ACCESS:          0 HIT:          0 MISS:          0 MSHR_MERGE:          0
cpu0->cpu0_ITLB PREFETCH REQUESTED:          0 ISSUED:          0 USEFUL:          0 USELESS:          0
cpu0->cpu0_ITLB AVERAGE MISS LATENCY: 7.416 cycles
cpu0->cpu0_DTLB TOTAL        ACCESS:    9477592 HIT:    8855449 MISS:     622143 MSHR_MERGE:      99603
cpu0->cpu0_DTLB LOAD         ACCESS:    9477592 HIT:    8855449 MISS:     622143 MSHR_MERGE:      99603
cpu0->cpu0_DTLB RFO          ACCESS:          0 HIT:          0 MISS:          0 MSHR_MERGE:          0
cpu0->cpu0_DTLB PREFETCH     ACCESS:          0 HIT:          0 MISS:          0 MSHR_MERGE:          0
cpu0->cpu0_DTLB WRITE        ACCESS:          0 HIT:          0 MISS:          0 MSHR_MERGE:          0
cpu0->cpu0_DTLB TRANSLATION  ACCESS:          0 HIT:          0 MISS:          0 MSHR_MERGE:          0
cpu0->cpu0_DTLB PREFETCH REQUESTED:          0 ISSUED:          0 USEFUL:          0 USELESS:          0
cpu0->cpu0_DTLB AVERAGE MISS LATENCY: 88.31 cycles
cpu0->LLC TOTAL        ACCESS:     751059 HIT:     331090 MISS:     419969 MSHR_MERGE:          0
cpu0->LLC LOAD         ACCESS:     319586 HIT:      71489 MISS:     248097 MSHR_MERGE:          0
cpu0->LLC RFO          ACCESS:      46619 HIT:      17131 MISS:      29488 MSHR_MERGE:          0
cpu0->LLC PREFETCH     ACCESS:          0 HIT:          0 MISS:          0 MSHR_MERGE:          0
cpu0->LLC WRITE        ACCESS:     181740 HIT:     181073 MISS:        667 MSHR_MERGE:          0
cpu0->LLC TRANSLATION  ACCESS:     203114 HIT:      61397 MISS:     141717 MSHR_MERGE:          0
cpu0->LLC PREFETCH REQUESTED:          0 ISSUED:          0 USEFUL:          0 USELESS:          0
cpu0->LLC AVERAGE MISS LATENCY: 188.9 cycles

DRAM Statistics

Channel 0 RQ ROW_BUFFER_HIT:       1461
  ROW_BUFFER_MISS:     417833
  AVG DBUS CONGESTED CYCLE: 20.1
Channel 0 WQ ROW_BUFFER_HIT:      45036
  ROW_BUFFER_MISS:      87483
  FULL:          0
Channel 0 REFRESHES ISSUED:       7867
