[VMEM] WARNING: physical memory size is smaller than virtual memory size.

*** ChampSim Multicore Out-of-Order Simulator ***
Warmup Instructions: 5000000
Simulation Instructions: 25000000
Number of CPUs: 1
Page size: 4096

Off-chip DRAM Size: 16 GiB Channels: 1 Width: 64-bit Data Rate: 3205 MT/s
Warmup finished CPU 0 instructions: 5000000 cycles: 1449659 cumulative IPC: 3.449 (Simulation time: 00 hr 00 min 21 sec)
Warmup complete CPU 0 instructions: 5000000 cycles: 1449659 cumulative IPC: 3.449 (Simulation time: 00 hr 00 min 21 sec)
Heartbeat CPU 0 instructions: 10000001 cycles: 11069696 heartbeat IPC: 0.9034 cumulative IPC: 0.5197 (Simulation time: 00 hr 01 min 16 sec)
Heartbeat CPU 0 instructions: 20000003 cycles: 30399649 heartbeat IPC: 0.5173 cumulative IPC: 0.5181 (Simulation time: 00 hr 03 min 11 sec)
Simulation finished CPU 0 instructions: 25000001 cycles: 48251271 cumulative IPC: 0.5181 (Simulation time: 00 hr 04 min 56 sec)
Simulation complete CPU 0 instructions: 25000001 cycles: 48251271 cumulative IPC: 0.5181 (Simulation time: 00 hr 04 min 56 sec)

ChampSim completed all CPUs

=== Simulation ===
CPU 0 runs /Users/aleksandrkozlov/Projects/microarch/hw2/traces/623.xalancbmk_s-165B.champsimtrace.xz

Region of Interest Statistics

CPU 0 cumulative IPC: 0.5181 instructions: 25000001 cycles: 48251271
CPU 0 Branch Prediction Accuracy: 96.52% MPKI: 9.701 Average ROB Occupancy at Mispredict: 59.23
Branch type MPKI
BRANCH_DIRECT_JUMP: 0
BRANCH_INDIRECT: 0
BRANCH_CONDITIONAL: 9.701
BRANCH_DIRECT_CALL: 0
BRANCH_INDIRECT_CALL: 0
BRANCH_RETURN: 0

cpu0->cpu0_STLB TOTAL        ACCESS:       8836 HIT:       8807 MISS:         29 MSHR_MERGE:          0
cpu0->cpu0_STLB LOAD         ACCESS:       8836 HIT:       8807 MISS:         29 MSHR_MERGE:          0
cpu0->cpu0_STLB RFO          ACCESS:          0 HIT:          0 MISS:          0 MSHR_MERGE:          0
cpu0->cpu0_STLB PREFETCH     ACCESS:          0 HIT:          0 MISS:          0 MSHR_MERGE:          0
cpu0->cpu0_STLB WRITE        ACCESS:          0 HIT:          0 MISS:          0 MSHR_MERGE:          0
cpu0->cpu0_STLB TRANSLATION  ACCESS:          0 HIT:          0 MISS:          0 MSHR_MERGE:          0
cpu0->cpu0_STLB PREFETCH REQUESTED:          0 ISSUED:          0 USEFUL:          0 USELESS:          0
cpu0->cpu0_STLB AVERAGE MISS LATENCY: 783.1 cycles
cpu0->cpu0_L2C TOTAL        ACCESS:     475746 HIT:        338 MISS:     475408 MSHR_MERGE:          0
cpu0->cpu0_L2C LOAD         ACCESS:     475334 HIT:        124 MISS:     475210 MSHR_MERGE:          0
cpu0->cpu0_L2C RFO          ACCESS:        146 HIT:          0 MISS:        146 MSHR_MERGE:          0
cpu0->cpu0_L2C PREFETCH     ACCESS:          0 HIT:          0 MISS:          0 MSHR_MERGE:          0
cpu0->cpu0_L2C WRITE        ACCESS:        214 HIT:        214 MISS:          0 MSHR_MERGE:          0
cpu0->cpu0_L2C TRANSLATION  ACCESS:         52 HIT:          0 MISS:         52 MSHR_MERGE:          0
cpu0->cpu0_L2C PREFETCH REQUESTED:          0 ISSUED:          0 USEFUL:          0 USELESS:          0
cpu0->cpu0_L2C AVERAGE MISS LATENCY: 118.9 cycles
cpu0->cpu0_L1I TOTAL        ACCESS:        980 HIT:        980 MISS:          0 MSHR_MERGE:          0
cpu0->cpu0_L1I LOAD         ACCESS:        980 HIT:        980 MISS:          0 MSHR_MERGE:          0
cpu0->cpu0_L1I RFO          ACCESS:          0 HIT:          0 MISS:          0 MSHR_MERGE:          0
cpu0->cpu0_L1I PREFETCH     ACCESS:          0 HIT:          0 MISS:          0 MSHR_MERGE:          0
cpu0->cpu0_L1I WRITE        ACCESS:          0 HIT:          0 MISS:          0 MSHR_MERGE:          0
cpu0->cpu0_L1I TRANSLATION  ACCESS:          0 HIT:          0 MISS:          0 MSHR_MERGE:          0
cpu0->cpu0_L1I PREFETCH REQUESTED:          0 ISSUED:          0 USEFUL:          0 USELESS:          0
cpu0->cpu0_L1I AVERAGE MISS LATENCY: - cycles
cpu0->cpu0_L1D TOTAL        ACCESS:    7036155 HIT:    5427074 MISS:    1609081 MSHR_MERGE:    1133549
cpu0->cpu0_L1D LOAD         ACCESS:    6707897 HIT:    5099555 MISS:    1608342 MSHR_MERGE:    1133008
cpu0->cpu0_L1D RFO          ACCESS:          0 HIT:          0 MISS:          0 MSHR_MERGE:          0
cpu0->cpu0_L1D PREFETCH     ACCESS:          0 HIT:          0 MISS:          0 MSHR_MERGE:          0
cpu0->cpu0_L1D WRITE        ACCESS:     328200 HIT:     327515 MISS:        685 MSHR_MERGE:        539
cpu0->cpu0_L1D TRANSLATION  ACCESS:         58 HIT:          4 MISS:         54 MSHR_MERGE:          2
cpu0->cpu0_L1D PREFETCH REQUESTED:          0 ISSUED:          0 USEFUL:          0 USELESS:          0
cpu0->cpu0_L1D AVERAGE MISS LATENCY: 127.9 cycles
cpu0->cpu0_ITLB TOTAL        ACCESS:        837 HIT:        837 MISS:          0 MSHR_MERGE:          0
cpu0->cpu0_ITLB LOAD         ACCESS:        837 HIT:        837 MISS:          0 MSHR_MERGE:          0
cpu0->cpu0_ITLB RFO          ACCESS:          0 HIT:          0 MISS:          0 MSHR_MERGE:          0
cpu0->cpu0_ITLB PREFETCH     ACCESS:          0 HIT:          0 MISS:          0 MSHR_MERGE:          0
cpu0->cpu0_ITLB WRITE        ACCESS:          0 HIT:          0 MISS:          0 MSHR_MERGE:          0
cpu0->cpu0_ITLB TRANSLATION  ACCESS:          0 HIT:          0 MISS:          0 MSHR_MERGE:          0
cpu0->cpu0_ITLB PREFETCH REQUESTED:          0 ISSUED:          0 USEFUL:          0 USELESS:          0
cpu0->cpu0_ITLB AVERAGE MISS LATENCY: - cycles
cpu0->cpu0_DTLB TOTAL        ACCESS:    6988992 HIT:    6967816 MISS:      21176 MSHR_MERGE:      12340
cpu0->cpu0_DTLB LOAD         ACCESS:    6988992 HIT:    6967816 MISS:      21176 MSHR_MERGE:      12340
cpu0->cpu0_DTLB RFO          ACCESS:          0 HIT:          0 MISS:          0 MSHR_MERGE:          0
cpu0->cpu0_DTLB PREFETCH     ACCESS:          0 HIT:          0 MISS:          0 MSHR_MERGE:          0
cpu0->cpu0_DTLB WRITE        ACCESS:          0 HIT:          0 MISS:          0 MSHR_MERGE:          0
cpu0->cpu0_DTLB TRANSLATION  ACCESS:          0 HIT:          0 MISS:          0 MSHR_MERGE:          0
cpu0->cpu0_DTLB PREFETCH REQUESTED:          0 ISSUED:          0 USEFUL:          0 USELESS:          0
cpu0->cpu0_DTLB AVERAGE MISS LATENCY: 7.574 cycles
cpu0->LLC TOTAL        ACCESS:     475622 HIT:     165513 MISS:     310109 MSHR_MERGE:          0
cpu0->LLC LOAD         ACCESS:     475210 HIT:     165238 MISS:     309972 MSHR_MERGE:          0
cpu0->LLC RFO          ACCESS:        146 HIT:         56 MISS:         90 MSHR_MERGE:          0
cpu0->LLC PREFETCH     ACCESS:          0 HIT:          0 MISS:          0 MSHR_MERGE:          0
cpu0->LLC WRITE        ACCESS:        214 HIT:        214 MISS:          0 MSHR_MERGE:          0
cpu0->LLC TRANSLATION  ACCESS:         52 HIT:          5 MISS:         47 MSHR_MERGE:          0
cpu0->LLC PREFETCH REQUESTED:          0 ISSUED:          0 USEFUL:          0 USELESS:          0
cpu0->LLC AVERAGE MISS LATENCY: 158.3 cycles

DRAM Statistics

Channel 0 RQ ROW_BUFFER_HIT:      78876
  ROW_BUFFER_MISS:     231233
  AVG DBUS CONGESTED CYCLE: 3.235
Channel 0 WQ ROW_BUFFER_HIT:         53
  ROW_BUFFER_MISS:         89
  FULL:          0
Channel 0 REFRESHES ISSUED:       4021
