[VMEM] WARNING: physical memory size is smaller than virtual memory size.

*** ChampSim Multicore Out-of-Order Simulator ***
Warmup Instructions: 5000000
Simulation Instructions: 25000000
Number of CPUs: 1
Page size: 4096

Off-chip DRAM Size: 16 GiB Channels: 1 Width: 64-bit Data Rate: 3205 MT/s
Warmup finished CPU 0 instructions: 5000002 cycles: 1277111 cumulative IPC: 3.915 (Simulation time: 00 hr 00 min 17 sec)
Warmup complete CPU 0 instructions: 5000002 cycles: 1277111 cumulative IPC: 3.915 (Simulation time: 00 hr 00 min 17 sec)
Heartbeat CPU 0 instructions: 10000002 cycles: 3243400 heartbeat IPC: 3.083 cumulative IPC: 2.543 (Simulation time: 00 hr 00 min 38 sec)
Heartbeat CPU 0 instructions: 20000002 cycles: 6843208 heartbeat IPC: 2.778 cumulative IPC: 2.695 (Simulation time: 00 hr 01 min 19 sec)
Heartbeat CPU 0 instructions: 30000006 cycles: 10417916 heartbeat IPC: 2.797 cumulative IPC: 2.735 (Simulation time: 00 hr 02 min 04 sec)
Simulation finished CPU 0 instructions: 25000004 cycles: 9140805 cumulative IPC: 2.735 (Simulation time: 00 hr 02 min 04 sec)
Simulation complete CPU 0 instructions: 25000004 cycles: 9140805 cumulative IPC: 2.735 (Simulation time: 00 hr 02 min 04 sec)

ChampSim completed all CPUs

=== Simulation ===
CPU 0 runs /Users/aleksandrkozlov/Projects/microarch/hw2/traces/625.x264_s-12B.champsimtrace.xz

Region of Interest Statistics

CPU 0 cumulative IPC: 2.735 instructions: 25000004 cycles: 9140805
CPU 0 Branch Prediction Accuracy: 95.28% MPKI: 1.835 Average ROB Occupancy at Mispredict: 166.7
Branch type MPKI
BRANCH_DIRECT_JUMP: 0.00068
BRANCH_INDIRECT: 0.00016
BRANCH_CONDITIONAL: 1.828
BRANCH_DIRECT_CALL: 0.00028
BRANCH_INDIRECT_CALL: 0.0046
BRANCH_RETURN: 0.00116

cpu0->cpu0_STLB TOTAL        ACCESS:       2706 HIT:       2572 MISS:        134 MSHR_MERGE:          0
cpu0->cpu0_STLB LOAD         ACCESS:       2706 HIT:       2572 MISS:        134 MSHR_MERGE:          0
cpu0->cpu0_STLB RFO          ACCESS:          0 HIT:          0 MISS:          0 MSHR_MERGE:          0
cpu0->cpu0_STLB PREFETCH     ACCESS:          0 HIT:          0 MISS:          0 MSHR_MERGE:          0
cpu0->cpu0_STLB WRITE        ACCESS:          0 HIT:          0 MISS:          0 MSHR_MERGE:          0
cpu0->cpu0_STLB TRANSLATION  ACCESS:          0 HIT:          0 MISS:          0 MSHR_MERGE:          0
cpu0->cpu0_STLB PREFETCH REQUESTED:          0 ISSUED:          0 USEFUL:          0 USELESS:          0
cpu0->cpu0_STLB AVERAGE MISS LATENCY: 717.7 cycles
cpu0->cpu0_L2C TOTAL        ACCESS:      12000 HIT:       4509 MISS:       7491 MSHR_MERGE:          0
cpu0->cpu0_L2C LOAD         ACCESS:      11351 HIT:       4316 MISS:       7035 MSHR_MERGE:          0
cpu0->cpu0_L2C RFO          ACCESS:        244 HIT:          2 MISS:        242 MSHR_MERGE:          0
cpu0->cpu0_L2C PREFETCH     ACCESS:          0 HIT:          0 MISS:          0 MSHR_MERGE:          0
cpu0->cpu0_L2C WRITE        ACCESS:        188 HIT:        187 MISS:          1 MSHR_MERGE:          0
cpu0->cpu0_L2C TRANSLATION  ACCESS:        217 HIT:          4 MISS:        213 MSHR_MERGE:          0
cpu0->cpu0_L2C PREFETCH REQUESTED:          0 ISSUED:          0 USEFUL:          0 USELESS:          0
cpu0->cpu0_L2C AVERAGE MISS LATENCY: 147.5 cycles
cpu0->cpu0_L1I TOTAL        ACCESS:    2741317 HIT:    2741091 MISS:        226 MSHR_MERGE:         67
cpu0->cpu0_L1I LOAD         ACCESS:    2741317 HIT:    2741091 MISS:        226 MSHR_MERGE:         67
cpu0->cpu0_L1I RFO          ACCESS:          0 HIT:          0 MISS:          0 MSHR_MERGE:          0
cpu0->cpu0_L1I PREFETCH     ACCESS:          0 HIT:          0 MISS:          0 MSHR_MERGE:          0
cpu0->cpu0_L1I WRITE        ACCESS:          0 HIT:          0 MISS:          0 MSHR_MERGE:          0
cpu0->cpu0_L1I TRANSLATION  ACCESS:          0 HIT:          0 MISS:          0 MSHR_MERGE:          0
cpu0->cpu0_L1I PREFETCH REQUESTED:          0 ISSUED:          0 USEFUL:          0 USELESS:          0
cpu0->cpu0_L1I AVERAGE MISS LATENCY: 202.5 cycles
cpu0->cpu0_L1D TOTAL        ACCESS:    4874508 HIT:    4837284 MISS:      37224 MSHR_MERGE:      25571
cpu0->cpu0_L1D LOAD         ACCESS:    3358535 HIT:    3322004 MISS:      36531 MSHR_MERGE:      25339
cpu0->cpu0_L1D RFO          ACCESS:          0 HIT:          0 MISS:          0 MSHR_MERGE:          0
cpu0->cpu0_L1D PREFETCH     ACCESS:          0 HIT:          0 MISS:          0 MSHR_MERGE:          0
cpu0->cpu0_L1D WRITE        ACCESS:    1515705 HIT:    1515229 MISS:        476 MSHR_MERGE:        232
cpu0->cpu0_L1D TRANSLATION  ACCESS:        268 HIT:         51 MISS:        217 MSHR_MERGE:          0
cpu0->cpu0_L1D PREFETCH REQUESTED:          0 ISSUED:          0 USEFUL:          0 USELESS:          0
cpu0->cpu0_L1D AVERAGE MISS LATENCY: 100.8 cycles
cpu0->cpu0_ITLB TOTAL        ACCESS:    2488554 HIT:    2488516 MISS:         38 MSHR_MERGE:         28
cpu0->cpu0_ITLB LOAD         ACCESS:    2488554 HIT:    2488516 MISS:         38 MSHR_MERGE:         28
cpu0->cpu0_ITLB RFO          ACCESS:          0 HIT:          0 MISS:          0 MSHR_MERGE:          0
cpu0->cpu0_ITLB PREFETCH     ACCESS:          0 HIT:          0 MISS:          0 MSHR_MERGE:          0
cpu0->cpu0_ITLB WRITE        ACCESS:          0 HIT:          0 MISS:          0 MSHR_MERGE:          0
cpu0->cpu0_ITLB TRANSLATION  ACCESS:          0 HIT:          0 MISS:          0 MSHR_MERGE:          0
cpu0->cpu0_ITLB PREFETCH REQUESTED:          0 ISSUED:          0 USEFUL:          0 USELESS:          0
cpu0->cpu0_ITLB AVERAGE MISS LATENCY: 757.1 cycles
cpu0->cpu0_DTLB TOTAL        ACCESS:    4594391 HIT:    4589852 MISS:       4539 MSHR_MERGE:       1843
cpu0->cpu0_DTLB LOAD         ACCESS:    4594391 HIT:    4589852 MISS:       4539 MSHR_MERGE:       1843
cpu0->cpu0_DTLB RFO          ACCESS:          0 HIT:          0 MISS:          0 MSHR_MERGE:          0
cpu0->cpu0_DTLB PREFETCH     ACCESS:          0 HIT:          0 MISS:          0 MSHR_MERGE:          0
cpu0->cpu0_DTLB WRITE        ACCESS:          0 HIT:          0 MISS:          0 MSHR_MERGE:          0
cpu0->cpu0_DTLB TRANSLATION  ACCESS:          0 HIT:          0 MISS:          0 MSHR_MERGE:          0
cpu0->cpu0_DTLB PREFETCH REQUESTED:          0 ISSUED:          0 USEFUL:          0 USELESS:          0
cpu0->cpu0_DTLB AVERAGE MISS LATENCY: 37.93 cycles
cpu0->LLC TOTAL        ACCESS:       7503 HIT:       1332 MISS:       6171 MSHR_MERGE:          0
cpu0->LLC LOAD         ACCESS:       7035 HIT:       1319 MISS:       5716 MSHR_MERGE:          0
cpu0->LLC RFO          ACCESS:        242 HIT:          0 MISS:        242 MSHR_MERGE:          0
cpu0->LLC PREFETCH     ACCESS:          0 HIT:          0 MISS:          0 MSHR_MERGE:          0
cpu0->LLC WRITE        ACCESS:         13 HIT:         13 MISS:          0 MSHR_MERGE:          0
cpu0->LLC TRANSLATION  ACCESS:        213 HIT:          0 MISS:        213 MSHR_MERGE:          0
cpu0->LLC PREFETCH REQUESTED:          0 ISSUED:          0 USEFUL:          0 USELESS:          0
cpu0->LLC AVERAGE MISS LATENCY: 159.8 cycles

DRAM Statistics

Channel 0 RQ ROW_BUFFER_HIT:        178
  ROW_BUFFER_MISS:       5993
  AVG DBUS CONGESTED CYCLE: 2.848
Channel 0 WQ ROW_BUFFER_HIT:          0
  ROW_BUFFER_MISS:          0
  FULL:          0
Channel 0 REFRESHES ISSUED:        762
