[VMEM] WARNING: physical memory size is smaller than virtual memory size.

*** ChampSim Multicore Out-of-Order Simulator ***
Warmup Instructions: 5000000
Simulation Instructions: 25000000
Number of CPUs: 1
Page size: 4096

Off-chip DRAM Size: 16 GiB Channels: 1 Width: 64-bit Data Rate: 3205 MT/s
Warmup finished CPU 0 instructions: 5000001 cycles: 1465648 cumulative IPC: 3.411 (Simulation time: 00 hr 00 min 20 sec)
Warmup complete CPU 0 instructions: 5000001 cycles: 1465648 cumulative IPC: 3.411 (Simulation time: 00 hr 00 min 20 sec)
Heartbeat CPU 0 instructions: 10000002 cycles: 5490872 heartbeat IPC: 1.821 cumulative IPC: 1.242 (Simulation time: 00 hr 00 min 53 sec)
Heartbeat CPU 0 instructions: 20000003 cycles: 13595535 heartbeat IPC: 1.234 cumulative IPC: 1.237 (Simulation time: 00 hr 01 min 58 sec)
Heartbeat CPU 0 instructions: 30000004 cycles: 21726935 heartbeat IPC: 1.23 cumulative IPC: 1.234 (Simulation time: 00 hr 02 min 57 sec)
Simulation finished CPU 0 instructions: 25000003 cycles: 20261287 cumulative IPC: 1.234 (Simulation time: 00 hr 02 min 57 sec)
Simulation complete CPU 0 instructions: 25000003 cycles: 20261287 cumulative IPC: 1.234 (Simulation time: 00 hr 02 min 57 sec)

ChampSim completed all CPUs

=== Simulation ===
CPU 0 runs /Users/aleksandrkozlov/Projects/microarch/hw2/traces/628.pop2_s-17B.champsimtrace.xz

Region of Interest Statistics

CPU 0 cumulative IPC: 1.234 instructions: 25000003 cycles: 20261287
CPU 0 Branch Prediction Accuracy: 97.04% MPKI: 3.383 Average ROB Occupancy at Mispredict: 107.1
Branch type MPKI
BRANCH_DIRECT_JUMP: 0.05124
BRANCH_INDIRECT: 0.0016
BRANCH_CONDITIONAL: 3.33
BRANCH_DIRECT_CALL: 0
BRANCH_INDIRECT_CALL: 0
BRANCH_RETURN: 0

cpu0->cpu0_STLB TOTAL        ACCESS:      21980 HIT:      20751 MISS:       1229 MSHR_MERGE:          0
cpu0->cpu0_STLB LOAD         ACCESS:      21980 HIT:      20751 MISS:       1229 MSHR_MERGE:          0
cpu0->cpu0_STLB RFO          ACCESS:          0 HIT:          0 MISS:          0 MSHR_MERGE:          0
cpu0->cpu0_STLB PREFETCH     ACCESS:          0 HIT:          0 MISS:          0 MSHR_MERGE:          0
cpu0->cpu0_STLB WRITE        ACCESS:          0 HIT:          0 MISS:          0 MSHR_MERGE:          0
cpu0->cpu0_STLB TRANSLATION  ACCESS:          0 HIT:          0 MISS:          0 MSHR_MERGE:          0
cpu0->cpu0_STLB PREFETCH REQUESTED:          0 ISSUED:          0 USEFUL:          0 USELESS:          0
cpu0->cpu0_STLB AVERAGE MISS LATENCY: 741 cycles
cpu0->cpu0_L2C TOTAL        ACCESS:     753650 HIT:     527259 MISS:     226391 MSHR_MERGE:          0
cpu0->cpu0_L2C LOAD         ACCESS:     410805 HIT:     238546 MISS:     172259 MSHR_MERGE:          0
cpu0->cpu0_L2C RFO          ACCESS:     136407 HIT:      84923 MISS:      51484 MSHR_MERGE:          0
cpu0->cpu0_L2C PREFETCH     ACCESS:          0 HIT:          0 MISS:          0 MSHR_MERGE:          0
cpu0->cpu0_L2C WRITE        ACCESS:     203846 HIT:     203679 MISS:        167 MSHR_MERGE:          0
cpu0->cpu0_L2C TRANSLATION  ACCESS:       2592 HIT:        111 MISS:       2481 MSHR_MERGE:          0
cpu0->cpu0_L2C PREFETCH REQUESTED:          0 ISSUED:          0 USEFUL:          0 USELESS:          0
cpu0->cpu0_L2C AVERAGE MISS LATENCY: 81.47 cycles
cpu0->cpu0_L1I TOTAL        ACCESS:    1867570 HIT:    1811304 MISS:      56266 MSHR_MERGE:      26705
cpu0->cpu0_L1I LOAD         ACCESS:    1867570 HIT:    1811304 MISS:      56266 MSHR_MERGE:      26705
cpu0->cpu0_L1I RFO          ACCESS:          0 HIT:          0 MISS:          0 MSHR_MERGE:          0
cpu0->cpu0_L1I PREFETCH     ACCESS:          0 HIT:          0 MISS:          0 MSHR_MERGE:          0
cpu0->cpu0_L1I WRITE        ACCESS:          0 HIT:          0 MISS:          0 MSHR_MERGE:          0
cpu0->cpu0_L1I TRANSLATION  ACCESS:          0 HIT:          0 MISS:          0 MSHR_MERGE:          0
cpu0->cpu0_L1I PREFETCH REQUESTED:          0 ISSUED:          0 USEFUL:          0 USELESS:          0
cpu0->cpu0_L1I AVERAGE MISS LATENCY: 23.73 cycles
cpu0->cpu0_L1D TOTAL        ACCESS:    6530494 HIT:    5360876 MISS:    1169618 MSHR_MERGE:     649371
cpu0->cpu0_L1D LOAD         ACCESS:    4636193 HIT:    3917654 MISS:     718539 MSHR_MERGE:     337293
cpu0->cpu0_L1D RFO          ACCESS:          0 HIT:          0 MISS:          0 MSHR_MERGE:          0
cpu0->cpu0_L1D PREFETCH     ACCESS:          0 HIT:          0 MISS:          0 MSHR_MERGE:          0
cpu0->cpu0_L1D WRITE        ACCESS:    1891441 HIT:    1443029 MISS:     448412 MSHR_MERGE:     312003
cpu0->cpu0_L1D TRANSLATION  ACCESS:       2860 HIT:        193 MISS:       2667 MSHR_MERGE:         75
cpu0->cpu0_L1D PREFETCH REQUESTED:          0 ISSUED:          0 USEFUL:          0 USELESS:          0
cpu0->cpu0_L1D AVERAGE MISS LATENCY: 43 cycles
cpu0->cpu0_ITLB TOTAL        ACCESS:    1516332 HIT:    1513352 MISS:       2980 MSHR_MERGE:       1741
cpu0->cpu0_ITLB LOAD         ACCESS:    1516332 HIT:    1513352 MISS:       2980 MSHR_MERGE:       1741
cpu0->cpu0_ITLB RFO          ACCESS:          0 HIT:          0 MISS:          0 MSHR_MERGE:          0
cpu0->cpu0_ITLB PREFETCH     ACCESS:          0 HIT:          0 MISS:          0 MSHR_MERGE:          0
cpu0->cpu0_ITLB WRITE        ACCESS:          0 HIT:          0 MISS:          0 MSHR_MERGE:          0
cpu0->cpu0_ITLB TRANSLATION  ACCESS:          0 HIT:          0 MISS:          0 MSHR_MERGE:          0
cpu0->cpu0_ITLB PREFETCH REQUESTED:          0 ISSUED:          0 USEFUL:          0 USELESS:          0
cpu0->cpu0_ITLB AVERAGE MISS LATENCY: 5.003 cycles
cpu0->cpu0_DTLB TOTAL        ACCESS:    6284426 HIT:    6248351 MISS:      36075 MSHR_MERGE:      15334
cpu0->cpu0_DTLB LOAD         ACCESS:    6284426 HIT:    6248351 MISS:      36075 MSHR_MERGE:      15334
cpu0->cpu0_DTLB RFO          ACCESS:          0 HIT:          0 MISS:          0 MSHR_MERGE:          0
cpu0->cpu0_DTLB PREFETCH     ACCESS:          0 HIT:          0 MISS:          0 MSHR_MERGE:          0
cpu0->cpu0_DTLB WRITE        ACCESS:          0 HIT:          0 MISS:          0 MSHR_MERGE:          0
cpu0->cpu0_DTLB TRANSLATION  ACCESS:          0 HIT:          0 MISS:          0 MSHR_MERGE:          0
cpu0->cpu0_DTLB PREFETCH REQUESTED:          0 ISSUED:          0 USEFUL:          0 USELESS:          0
cpu0->cpu0_DTLB AVERAGE MISS LATENCY: 48.97 cycles
cpu0->LLC TOTAL        ACCESS:     312573 HIT:     233392 MISS:      79181 MSHR_MERGE:          0
cpu0->LLC LOAD         ACCESS:     172259 HIT:     101602 MISS:      70657 MSHR_MERGE:          0
cpu0->LLC RFO          ACCESS:      51484 HIT:      45263 MISS:       6221 MSHR_MERGE:          0
cpu0->LLC PREFETCH     ACCESS:          0 HIT:          0 MISS:          0 MSHR_MERGE:          0
cpu0->LLC WRITE        ACCESS:      86349 HIT:      85808 MISS:        541 MSHR_MERGE:          0
cpu0->LLC TRANSLATION  ACCESS:       2481 HIT:        719 MISS:       1762 MSHR_MERGE:          0
cpu0->LLC PREFETCH REQUESTED:          0 ISSUED:          0 USEFUL:          0 USELESS:          0
cpu0->LLC AVERAGE MISS LATENCY: 189.1 cycles

DRAM Statistics

Channel 0 RQ ROW_BUFFER_HIT:       2242
  ROW_BUFFER_MISS:      76381
  AVG DBUS CONGESTED CYCLE: 15.7
Channel 0 WQ ROW_BUFFER_HIT:       5866
  ROW_BUFFER_MISS:      15304
  FULL:          0
Channel 0 REFRESHES ISSUED:       1688
