[VMEM] WARNING: physical memory size is smaller than virtual memory size.

*** ChampSim Multicore Out-of-Order Simulator ***
Warmup Instructions: 5000000
Simulation Instructions: 25000000
Number of CPUs: 1
Page size: 4096

Off-chip DRAM Size: 16 GiB Channels: 1 Width: 64-bit Data Rate: 3205 MT/s
Warmup finished CPU 0 instructions: 5000002 cycles: 1766056 cumulative IPC: 2.831 (Simulation time: 00 hr 00 min 25 sec)
Warmup complete CPU 0 instructions: 5000002 cycles: 1766056 cumulative IPC: 2.831 (Simulation time: 00 hr 00 min 25 sec)
Heartbeat CPU 0 instructions: 10000001 cycles: 6024083 heartbeat IPC: 1.66 cumulative IPC: 1.174 (Simulation time: 00 hr 00 min 58 sec)
Heartbeat CPU 0 instructions: 20000002 cycles: 14610119 heartbeat IPC: 1.165 cumulative IPC: 1.168 (Simulation time: 00 hr 01 min 58 sec)
Heartbeat CPU 0 instructions: 30000005 cycles: 23113719 heartbeat IPC: 1.176 cumulative IPC: 1.171 (Simulation time: 00 hr 02 min 56 sec)
Simulation finished CPU 0 instructions: 25000003 cycles: 21347663 cumulative IPC: 1.171 (Simulation time: 00 hr 02 min 56 sec)
Simulation complete CPU 0 instructions: 25000003 cycles: 21347663 cumulative IPC: 1.171 (Simulation time: 00 hr 02 min 56 sec)

ChampSim completed all CPUs

=== Simulation ===
CPU 0 runs /Users/aleksandrkozlov/Projects/microarch/hw2/traces/631.deepsjeng_s-928B.champsimtrace.xz

Region of Interest Statistics

CPU 0 cumulative IPC: 1.171 instructions: 25000003 cycles: 21347663
CPU 0 Branch Prediction Accuracy: 92.11% MPKI: 11.82 Average ROB Occupancy at Mispredict: 38.49
Branch type MPKI
BRANCH_DIRECT_JUMP: 0.02156
BRANCH_INDIRECT: 0.00908
BRANCH_CONDITIONAL: 11.34
BRANCH_DIRECT_CALL: 0.02132
BRANCH_INDIRECT_CALL: 0
BRANCH_RETURN: 0.432

cpu0->cpu0_STLB TOTAL        ACCESS:       6381 HIT:       2002 MISS:       4379 MSHR_MERGE:          0
cpu0->cpu0_STLB LOAD         ACCESS:       6381 HIT:       2002 MISS:       4379 MSHR_MERGE:          0
cpu0->cpu0_STLB RFO          ACCESS:          0 HIT:          0 MISS:          0 MSHR_MERGE:          0
cpu0->cpu0_STLB PREFETCH     ACCESS:          0 HIT:          0 MISS:          0 MSHR_MERGE:          0
cpu0->cpu0_STLB WRITE        ACCESS:          0 HIT:          0 MISS:          0 MSHR_MERGE:          0
cpu0->cpu0_STLB TRANSLATION  ACCESS:          0 HIT:          0 MISS:          0 MSHR_MERGE:          0
cpu0->cpu0_STLB PREFETCH REQUESTED:          0 ISSUED:          0 USEFUL:          0 USELESS:          0
cpu0->cpu0_STLB AVERAGE MISS LATENCY: 934.4 cycles
cpu0->cpu0_L2C TOTAL        ACCESS:      71037 HIT:      51576 MISS:      19461 MSHR_MERGE:          0
cpu0->cpu0_L2C LOAD         ACCESS:      36389 HIT:      28922 MISS:       7467 MSHR_MERGE:          0
cpu0->cpu0_L2C RFO          ACCESS:       7766 HIT:       7012 MISS:        754 MSHR_MERGE:          0
cpu0->cpu0_L2C PREFETCH     ACCESS:          0 HIT:          0 MISS:          0 MSHR_MERGE:          0
cpu0->cpu0_L2C WRITE        ACCESS:      14055 HIT:      14024 MISS:         31 MSHR_MERGE:          0
cpu0->cpu0_L2C TRANSLATION  ACCESS:      12827 HIT:       1618 MISS:      11209 MSHR_MERGE:          0
cpu0->cpu0_L2C PREFETCH REQUESTED:          0 ISSUED:          0 USEFUL:          0 USELESS:          0
cpu0->cpu0_L2C AVERAGE MISS LATENCY: 161.5 cycles
cpu0->cpu0_L1I TOTAL        ACCESS:    2979852 HIT:    2952840 MISS:      27012 MSHR_MERGE:       5659
cpu0->cpu0_L1I LOAD         ACCESS:    2979852 HIT:    2952840 MISS:      27012 MSHR_MERGE:       5659
cpu0->cpu0_L1I RFO          ACCESS:          0 HIT:          0 MISS:          0 MSHR_MERGE:          0
cpu0->cpu0_L1I PREFETCH     ACCESS:          0 HIT:          0 MISS:          0 MSHR_MERGE:          0
cpu0->cpu0_L1I WRITE        ACCESS:          0 HIT:          0 MISS:          0 MSHR_MERGE:          0
cpu0->cpu0_L1I TRANSLATION  ACCESS:          0 HIT:          0 MISS:          0 MSHR_MERGE:          0
cpu0->cpu0_L1I PREFETCH REQUESTED:          0 ISSUED:          0 USEFUL:          0 USELESS:          0
cpu0->cpu0_L1I AVERAGE MISS LATENCY: 7.207 cycles
cpu0->cpu0_L1D TOTAL        ACCESS:    7581797 HIT:    7527035 MISS:      54762 MSHR_MERGE:      19129
cpu0->cpu0_L1D LOAD         ACCESS:    4536538 HIT:    4515467 MISS:      21071 MSHR_MERGE:       6031
cpu0->cpu0_L1D RFO          ACCESS:          0 HIT:          0 MISS:          0 MSHR_MERGE:          0
cpu0->cpu0_L1D PREFETCH     ACCESS:          0 HIT:          0 MISS:          0 MSHR_MERGE:          0
cpu0->cpu0_L1D WRITE        ACCESS:    3032070 HIT:    3011240 MISS:      20830 MSHR_MERGE:      13064
cpu0->cpu0_L1D TRANSLATION  ACCESS:      13189 HIT:        328 MISS:      12861 MSHR_MERGE:         34
cpu0->cpu0_L1D PREFETCH REQUESTED:          0 ISSUED:          0 USEFUL:          0 USELESS:          0
cpu0->cpu0_L1D AVERAGE MISS LATENCY: 96.69 cycles
cpu0->cpu0_ITLB TOTAL        ACCESS:    2527447 HIT:    2527447 MISS:          0 MSHR_MERGE:          0
cpu0->cpu0_ITLB LOAD         ACCESS:    2527447 HIT:    2527447 MISS:          0 MSHR_MERGE:          0
cpu0->cpu0_ITLB RFO          ACCESS:          0 HIT:          0 MISS:          0 MSHR_MERGE:          0
cpu0->cpu0_ITLB PREFETCH     ACCESS:          0 HIT:          0 MISS:          0 MSHR_MERGE:          0
cpu0->cpu0_ITLB WRITE        ACCESS:          0 HIT:          0 MISS:          0 MSHR_MERGE:          0
cpu0->cpu0_ITLB TRANSLATION  ACCESS:          0 HIT:          0 MISS:          0 MSHR_MERGE:          0
cpu0->cpu0_ITLB PREFETCH REQUESTED:          0 ISSUED:          0 USEFUL:          0 USELESS:          0
cpu0->cpu0_ITLB AVERAGE MISS LATENCY: - cycles
cpu0->cpu0_DTLB TOTAL        ACCESS:    7087611 HIT:    7074312 MISS:      13299 MSHR_MERGE:       6918
cpu0->cpu0_DTLB LOAD         ACCESS:    7087611 HIT:    7074312 MISS:      13299 MSHR_MERGE:       6918
cpu0->cpu0_DTLB RFO          ACCESS:          0 HIT:          0 MISS:          0 MSHR_MERGE:          0
cpu0->cpu0_DTLB PREFETCH     ACCESS:          0 HIT:          0 MISS:          0 MSHR_MERGE:          0
cpu0->cpu0_DTLB WRITE        ACCESS:          0 HIT:          0 MISS:          0 MSHR_MERGE:          0
cpu0->cpu0_DTLB TRANSLATION  ACCESS:          0 HIT:          0 MISS:          0 MSHR_MERGE:          0
cpu0->cpu0_DTLB PREFETCH REQUESTED:          0 ISSUED:          0 USEFUL:          0 USELESS:          0
cpu0->cpu0_DTLB AVERAGE MISS LATENCY: 646.9 cycles
cpu0->LLC TOTAL        ACCESS:      24209 HIT:       6646 MISS:      17563 MSHR_MERGE:          0
cpu0->LLC LOAD         ACCESS:       7467 HIT:        495 MISS:       6972 MSHR_MERGE:          0
cpu0->LLC RFO          ACCESS:        754 HIT:        302 MISS:        452 MSHR_MERGE:          0
cpu0->LLC PREFETCH     ACCESS:          0 HIT:          0 MISS:          0 MSHR_MERGE:          0
cpu0->LLC WRITE        ACCESS:       4779 HIT:       4774 MISS:          5 MSHR_MERGE:          0
cpu0->LLC TRANSLATION  ACCESS:      11209 HIT:       1075 MISS:      10134 MSHR_MERGE:          0
cpu0->LLC PREFETCH REQUESTED:          0 ISSUED:          0 USEFUL:          0 USELESS:          0
cpu0->LLC AVERAGE MISS LATENCY: 161.4 cycles

DRAM Statistics

Channel 0 RQ ROW_BUFFER_HIT:         22
  ROW_BUFFER_MISS:      17536
  AVG DBUS CONGESTED CYCLE: 3.266
Channel 0 WQ ROW_BUFFER_HIT:          1
  ROW_BUFFER_MISS:        101
  FULL:          0
Channel 0 REFRESHES ISSUED:       1779
