[VMEM] WARNING: physical memory size is smaller than virtual memory size.

*** ChampSim Multicore Out-of-Order Simulator ***
Warmup Instructions: 5000000
Simulation Instructions: 25000000
Number of CPUs: 1
Page size: 4096

Off-chip DRAM Size: 16 GiB Channels: 1 Width: 64-bit Data Rate: 3205 MT/s
Warmup finished CPU 0 instructions: 5000001 cycles: 1343792 cumulative IPC: 3.721 (Simulation time: 00 hr 00 min 17 sec)
Warmup complete CPU 0 instructions: 5000001 cycles: 1343792 cumulative IPC: 3.721 (Simulation time: 00 hr 00 min 17 sec)
Heartbeat CPU 0 instructions: 10000004 cycles: 5855230 heartbeat IPC: 1.708 cumulative IPC: 1.108 (Simulation time: 00 hr 00 min 47 sec)
Heartbeat CPU 0 instructions: 20000008 cycles: 19305289 heartbeat IPC: 0.7435 cumulative IPC: 0.8351 (Simulation time: 00 hr 02 min 11 sec)
Simulation finished CPU 0 instructions: 25000000 cycles: 27135811 cumulative IPC: 0.9213 (Simulation time: 00 hr 03 min 02 sec)
Simulation complete CPU 0 instructions: 25000000 cycles: 27135811 cumulative IPC: 0.9213 (Simulation time: 00 hr 03 min 02 sec)

ChampSim completed all CPUs

=== Simulation ===
CPU 0 runs /Users/aleksandrkozlov/Projects/microarch/hw2/traces/641.leela_s-149B.champsimtrace.xz

Region of Interest Statistics

CPU 0 cumulative IPC: 0.9213 instructions: 25000000 cycles: 27135811
CPU 0 Branch Prediction Accuracy: 90.82% MPKI: 15.88 Average ROB Occupancy at Mispredict: 25.14
Branch type MPKI
BRANCH_DIRECT_JUMP: 0.1037
BRANCH_INDIRECT: 0.02064
BRANCH_CONDITIONAL: 15.69
BRANCH_DIRECT_CALL: 0.01192
BRANCH_INDIRECT_CALL: 0.0072
BRANCH_RETURN: 0.03844

cpu0->cpu0_STLB TOTAL        ACCESS:      12553 HIT:      12075 MISS:        478 MSHR_MERGE:          0
cpu0->cpu0_STLB LOAD         ACCESS:      12553 HIT:      12075 MISS:        478 MSHR_MERGE:          0
cpu0->cpu0_STLB RFO          ACCESS:          0 HIT:          0 MISS:          0 MSHR_MERGE:          0
cpu0->cpu0_STLB PREFETCH     ACCESS:          0 HIT:          0 MISS:          0 MSHR_MERGE:          0
cpu0->cpu0_STLB WRITE        ACCESS:          0 HIT:          0 MISS:          0 MSHR_MERGE:          0
cpu0->cpu0_STLB TRANSLATION  ACCESS:          0 HIT:          0 MISS:          0 MSHR_MERGE:          0
cpu0->cpu0_STLB PREFETCH REQUESTED:          0 ISSUED:          0 USEFUL:          0 USELESS:          0
cpu0->cpu0_STLB AVERAGE MISS LATENCY: 735.1 cycles
cpu0->cpu0_L2C TOTAL        ACCESS:     292666 HIT:     201468 MISS:      91198 MSHR_MERGE:          0
cpu0->cpu0_L2C LOAD         ACCESS:     124406 HIT:      66404 MISS:      58002 MSHR_MERGE:          0
cpu0->cpu0_L2C RFO          ACCESS:      63879 HIT:      31473 MISS:      32406 MSHR_MERGE:          0
cpu0->cpu0_L2C PREFETCH     ACCESS:          0 HIT:          0 MISS:          0 MSHR_MERGE:          0
cpu0->cpu0_L2C WRITE        ACCESS:     103630 HIT:     103588 MISS:         42 MSHR_MERGE:          0
cpu0->cpu0_L2C TRANSLATION  ACCESS:        751 HIT:          3 MISS:        748 MSHR_MERGE:          0
cpu0->cpu0_L2C PREFETCH REQUESTED:          0 ISSUED:          0 USEFUL:          0 USELESS:          0
cpu0->cpu0_L2C AVERAGE MISS LATENCY: 66.54 cycles
cpu0->cpu0_L1I TOTAL        ACCESS:    3046643 HIT:    3035827 MISS:      10816 MSHR_MERGE:       3534
cpu0->cpu0_L1I LOAD         ACCESS:    3046643 HIT:    3035827 MISS:      10816 MSHR_MERGE:       3534
cpu0->cpu0_L1I RFO          ACCESS:          0 HIT:          0 MISS:          0 MSHR_MERGE:          0
cpu0->cpu0_L1I PREFETCH     ACCESS:          0 HIT:          0 MISS:          0 MSHR_MERGE:          0
cpu0->cpu0_L1I WRITE        ACCESS:          0 HIT:          0 MISS:          0 MSHR_MERGE:          0
cpu0->cpu0_L1I TRANSLATION  ACCESS:          0 HIT:          0 MISS:          0 MSHR_MERGE:          0
cpu0->cpu0_L1I PREFETCH REQUESTED:          0 ISSUED:          0 USEFUL:          0 USELESS:          0
cpu0->cpu0_L1I AVERAGE MISS LATENCY: 29.98 cycles
cpu0->cpu0_L1D TOTAL        ACCESS:    8170782 HIT:    7736595 MISS:     434187 MSHR_MERGE:     252433
cpu0->cpu0_L1D LOAD         ACCESS:    4612453 HIT:    4432778 MISS:     179675 MSHR_MERGE:      62551
cpu0->cpu0_L1D RFO          ACCESS:          0 HIT:          0 MISS:          0 MSHR_MERGE:          0
cpu0->cpu0_L1D PREFETCH     ACCESS:          0 HIT:          0 MISS:          0 MSHR_MERGE:          0
cpu0->cpu0_L1D WRITE        ACCESS:    3557372 HIT:    3303611 MISS:     253761 MSHR_MERGE:     189882
cpu0->cpu0_L1D TRANSLATION  ACCESS:        957 HIT:        206 MISS:        751 MSHR_MERGE:          0
cpu0->cpu0_L1D PREFETCH REQUESTED:          0 ISSUED:          0 USEFUL:          0 USELESS:          0
cpu0->cpu0_L1D AVERAGE MISS LATENCY: 41.05 cycles
cpu0->cpu0_ITLB TOTAL        ACCESS:    2773082 HIT:    2772478 MISS:        604 MSHR_MERGE:        318
cpu0->cpu0_ITLB LOAD         ACCESS:    2773082 HIT:    2772478 MISS:        604 MSHR_MERGE:        318
cpu0->cpu0_ITLB RFO          ACCESS:          0 HIT:          0 MISS:          0 MSHR_MERGE:          0
cpu0->cpu0_ITLB PREFETCH     ACCESS:          0 HIT:          0 MISS:          0 MSHR_MERGE:          0
cpu0->cpu0_ITLB WRITE        ACCESS:          0 HIT:          0 MISS:          0 MSHR_MERGE:          0
cpu0->cpu0_ITLB TRANSLATION  ACCESS:          0 HIT:          0 MISS:          0 MSHR_MERGE:          0
cpu0->cpu0_ITLB PREFETCH REQUESTED:          0 ISSUED:          0 USEFUL:          0 USELESS:          0
cpu0->cpu0_ITLB AVERAGE MISS LATENCY: 128.8 cycles
cpu0->cpu0_DTLB TOTAL        ACCESS:    7739307 HIT:    7721654 MISS:      17653 MSHR_MERGE:       5386
cpu0->cpu0_DTLB LOAD         ACCESS:    7739307 HIT:    7721654 MISS:      17653 MSHR_MERGE:       5386
cpu0->cpu0_DTLB RFO          ACCESS:          0 HIT:          0 MISS:          0 MSHR_MERGE:          0
cpu0->cpu0_DTLB PREFETCH     ACCESS:          0 HIT:          0 MISS:          0 MSHR_MERGE:          0
cpu0->cpu0_DTLB WRITE        ACCESS:          0 HIT:          0 MISS:          0 MSHR_MERGE:          0
cpu0->cpu0_DTLB TRANSLATION  ACCESS:          0 HIT:          0 MISS:          0 MSHR_MERGE:          0
cpu0->cpu0_DTLB PREFETCH REQUESTED:          0 ISSUED:          0 USEFUL:          0 USELESS:          0
cpu0->cpu0_DTLB AVERAGE MISS LATENCY: 30.8 cycles
cpu0->LLC TOTAL        ACCESS:     148451 HIT:     121085 MISS:      27366 MSHR_MERGE:          0
cpu0->LLC LOAD         ACCESS:      58002 HIT:      39425 MISS:      18577 MSHR_MERGE:          0
cpu0->LLC RFO          ACCESS:      32406 HIT:      24363 MISS:       8043 MSHR_MERGE:          0
cpu0->LLC PREFETCH     ACCESS:          0 HIT:          0 MISS:          0 MSHR_MERGE:          0
cpu0->LLC WRITE        ACCESS:      57295 HIT:      57291 MISS:          4 MSHR_MERGE:          0
cpu0->LLC TRANSLATION  ACCESS:        748 HIT:          6 MISS:        742 MSHR_MERGE:          0
cpu0->LLC PREFETCH REQUESTED:          0 ISSUED:          0 USEFUL:          0 USELESS:          0
cpu0->LLC AVERAGE MISS LATENCY: 170.8 cycles

DRAM Statistics

Channel 0 RQ ROW_BUFFER_HIT:       2735
  ROW_BUFFER_MISS:      24622
  AVG DBUS CONGESTED CYCLE: 15.64
Channel 0 WQ ROW_BUFFER_HIT:        325
  ROW_BUFFER_MISS:       1269
  FULL:          0
Channel 0 REFRESHES ISSUED:       2262
