[VMEM] WARNING: physical memory size is smaller than virtual memory size.

*** ChampSim Multicore Out-of-Order Simulator ***
Warmup Instructions: 5000000
Simulation Instructions: 25000000
Number of CPUs: 1
Page size: 4096

Off-chip DRAM Size: 16 GiB Channels: 1 Width: 64-bit Data Rate: 3205 MT/s
Warmup finished CPU 0 instructions: 5000002 cycles: 1300141 cumulative IPC: 3.846 (Simulation time: 00 hr 00 min 17 sec)
Warmup complete CPU 0 instructions: 5000002 cycles: 1300141 cumulative IPC: 3.846 (Simulation time: 00 hr 00 min 17 sec)
Heartbeat CPU 0 instructions: 10000001 cycles: 4467896 heartbeat IPC: 2.238 cumulative IPC: 1.578 (Simulation time: 00 hr 00 min 40 sec)
Heartbeat CPU 0 instructions: 20000001 cycles: 11031765 heartbeat IPC: 1.523 cumulative IPC: 1.541 (Simulation time: 00 hr 01 min 25 sec)
Heartbeat CPU 0 instructions: 30000001 cycles: 17587573 heartbeat IPC: 1.525 cumulative IPC: 1.535 (Simulation time: 00 hr 02 min 06 sec)
Simulation finished CPU 0 instructions: 25000000 cycles: 16287433 cumulative IPC: 1.535 (Simulation time: 00 hr 02 min 06 sec)
Simulation complete CPU 0 instructions: 25000000 cycles: 16287433 cumulative IPC: 1.535 (Simulation time: 00 hr 02 min 06 sec)

ChampSim completed all CPUs

=== Simulation ===
CPU 0 runs /Users/aleksandrkozlov/Projects/microarch/hw2/traces/644.nab_s-12459B.champsimtrace.xz

Region of Interest Statistics

CPU 0 cumulative IPC: 1.535 instructions: 25000000 cycles: 16287433
CPU 0 Branch Prediction Accuracy: 92.99% MPKI: 10.07 Average ROB Occupancy at Mispredict: 53.25
Branch type MPKI
BRANCH_DIRECT_JUMP: 0.2805
BRANCH_INDIRECT: 0
BRANCH_CONDITIONAL: 9.788
BRANCH_DIRECT_CALL: 0
BRANCH_INDIRECT_CALL: 0
BRANCH_RETURN: 0

cpu0->cpu0_STLB TOTAL        ACCESS:       5230 HIT:       5150 MISS:         80 MSHR_MERGE:          0
cpu0->cpu0_STLB LOAD         ACCESS:       5230 HIT:       5150 MISS:         80 MSHR_MERGE:          0
cpu0->cpu0_STLB RFO          ACCESS:          0 HIT:          0 MISS:          0 MSHR_MERGE:          0
cpu0->cpu0_STLB PREFETCH     ACCESS:          0 HIT:          0 MISS:          0 MSHR_MERGE:          0
cpu0->cpu0_STLB WRITE        ACCESS:          0 HIT:          0 MISS:          0 MSHR_MERGE:          0
cpu0->cpu0_STLB TRANSLATION  ACCESS:          0 HIT:          0 MISS:          0 MSHR_MERGE:          0
cpu0->cpu0_STLB PREFETCH REQUESTED:          0 ISSUED:          0 USEFUL:          0 USELESS:          0
cpu0->cpu0_STLB AVERAGE MISS LATENCY: 682.7 cycles
cpu0->cpu0_L2C TOTAL        ACCESS:     159811 HIT:     135877 MISS:      23934 MSHR_MERGE:          0
cpu0->cpu0_L2C LOAD         ACCESS:     139480 HIT:     119532 MISS:      19948 MSHR_MERGE:          0
cpu0->cpu0_L2C RFO          ACCESS:       8165 HIT:       4303 MISS:       3862 MSHR_MERGE:          0
cpu0->cpu0_L2C PREFETCH     ACCESS:          0 HIT:          0 MISS:          0 MSHR_MERGE:          0
cpu0->cpu0_L2C WRITE        ACCESS:      12041 HIT:      12028 MISS:         13 MSHR_MERGE:          0
cpu0->cpu0_L2C TRANSLATION  ACCESS:        125 HIT:         14 MISS:        111 MSHR_MERGE:          0
cpu0->cpu0_L2C PREFETCH REQUESTED:          0 ISSUED:          0 USEFUL:          0 USELESS:          0
cpu0->cpu0_L2C AVERAGE MISS LATENCY: 50.98 cycles
cpu0->cpu0_L1I TOTAL        ACCESS:      81592 HIT:      81592 MISS:          0 MSHR_MERGE:          0
cpu0->cpu0_L1I LOAD         ACCESS:      81592 HIT:      81592 MISS:          0 MSHR_MERGE:          0
cpu0->cpu0_L1I RFO          ACCESS:          0 HIT:          0 MISS:          0 MSHR_MERGE:          0
cpu0->cpu0_L1I PREFETCH     ACCESS:          0 HIT:          0 MISS:          0 MSHR_MERGE:          0
cpu0->cpu0_L1I WRITE        ACCESS:          0 HIT:          0 MISS:          0 MSHR_MERGE:          0
cpu0->cpu0_L1I TRANSLATION  ACCESS:          0 HIT:          0 MISS:          0 MSHR_MERGE:          0
cpu0->cpu0_L1I PREFETCH REQUESTED:          0 ISSUED:          0 USEFUL:          0 USELESS:          0
cpu0->cpu0_L1I AVERAGE MISS LATENCY: - cycles
cpu0->cpu0_L1D TOTAL        ACCESS:    6809362 HIT:    6569755 MISS:     239607 MSHR_MERGE:      91837
cpu0->cpu0_L1D LOAD         ACCESS:    4346537 HIT:    4174168 MISS:     172369 MSHR_MERGE:      32889
cpu0->cpu0_L1D RFO          ACCESS:          0 HIT:          0 MISS:          0 MSHR_MERGE:          0
cpu0->cpu0_L1D PREFETCH     ACCESS:          0 HIT:          0 MISS:          0 MSHR_MERGE:          0
cpu0->cpu0_L1D WRITE        ACCESS:    2462665 HIT:    2395554 MISS:      67111 MSHR_MERGE:      58946
cpu0->cpu0_L1D TRANSLATION  ACCESS:        160 HIT:         33 MISS:        127 MSHR_MERGE:          2
cpu0->cpu0_L1D PREFETCH REQUESTED:          0 ISSUED:          0 USEFUL:          0 USELESS:          0
cpu0->cpu0_L1D AVERAGE MISS LATENCY: 16.42 cycles
cpu0->cpu0_ITLB TOTAL        ACCESS:      67293 HIT:      67293 MISS:          0 MSHR_MERGE:          0
cpu0->cpu0_ITLB LOAD         ACCESS:      67293 HIT:      67293 MISS:          0 MSHR_MERGE:          0
cpu0->cpu0_ITLB RFO          ACCESS:          0 HIT:          0 MISS:          0 MSHR_MERGE:          0
cpu0->cpu0_ITLB PREFETCH     ACCESS:          0 HIT:          0 MISS:          0 MSHR_MERGE:          0
cpu0->cpu0_ITLB WRITE        ACCESS:          0 HIT:          0 MISS:          0 MSHR_MERGE:          0
cpu0->cpu0_ITLB TRANSLATION  ACCESS:          0 HIT:          0 MISS:          0 MSHR_MERGE:          0
cpu0->cpu0_ITLB PREFETCH REQUESTED:          0 ISSUED:          0 USEFUL:          0 USELESS:          0
cpu0->cpu0_ITLB AVERAGE MISS LATENCY: - cycles
cpu0->cpu0_DTLB TOTAL        ACCESS:    6513273 HIT:    6506195 MISS:       7078 MSHR_MERGE:       1848
cpu0->cpu0_DTLB LOAD         ACCESS:    6513273 HIT:    6506195 MISS:       7078 MSHR_MERGE:       1848
cpu0->cpu0_DTLB RFO          ACCESS:          0 HIT:          0 MISS:          0 MSHR_MERGE:          0
cpu0->cpu0_DTLB PREFETCH     ACCESS:          0 HIT:          0 MISS:          0 MSHR_MERGE:          0
cpu0->cpu0_DTLB WRITE        ACCESS:          0 HIT:          0 MISS:          0 MSHR_MERGE:          0
cpu0->cpu0_DTLB TRANSLATION  ACCESS:          0 HIT:          0 MISS:          0 MSHR_MERGE:          0
cpu0->cpu0_DTLB PREFETCH REQUESTED:          0 ISSUED:          0 USEFUL:          0 USELESS:          0
cpu0->cpu0_DTLB AVERAGE MISS LATENCY: 15.46 cycles
cpu0->LLC TOTAL        ACCESS:      26645 HIT:      21256 MISS:       5389 MSHR_MERGE:          0
cpu0->LLC LOAD         ACCESS:      19948 HIT:      18499 MISS:       1449 MSHR_MERGE:          0
cpu0->LLC RFO          ACCESS:       3862 HIT:         29 MISS:       3833 MSHR_MERGE:          0
cpu0->LLC PREFETCH     ACCESS:          0 HIT:          0 MISS:          0 MSHR_MERGE:          0
cpu0->LLC WRITE        ACCESS:       2724 HIT:       2724 MISS:          0 MSHR_MERGE:          0
cpu0->LLC TRANSLATION  ACCESS:        111 HIT:          4 MISS:        107 MSHR_MERGE:          0
cpu0->LLC PREFETCH REQUESTED:          0 ISSUED:          0 USEFUL:          0 USELESS:          0
cpu0->LLC AVERAGE MISS LATENCY: 158.8 cycles

DRAM Statistics

Channel 0 RQ ROW_BUFFER_HIT:       1367
  ROW_BUFFER_MISS:       4022
  AVG DBUS CONGESTED CYCLE: 2.622
Channel 0 WQ ROW_BUFFER_HIT:          0
  ROW_BUFFER_MISS:          0
  FULL:          0
Channel 0 REFRESHES ISSUED:       1357
