[VMEM] WARNING: physical memory size is smaller than virtual memory size.

*** ChampSim Multicore Out-of-Order Simulator ***
Warmup Instructions: 5000000
Simulation Instructions: 25000000
Number of CPUs: 1
Page size: 4096

Off-chip DRAM Size: 16 GiB Channels: 1 Width: 64-bit Data Rate: 3205 MT/s
Warmup finished CPU 0 instructions: 5000000 cycles: 1263654 cumulative IPC: 3.957 (Simulation time: 00 hr 00 min 18 sec)
Warmup complete CPU 0 instructions: 5000000 cycles: 1263654 cumulative IPC: 3.957 (Simulation time: 00 hr 00 min 18 sec)
Heartbeat CPU 0 instructions: 10000003 cycles: 4184466 heartbeat IPC: 2.39 cumulative IPC: 1.712 (Simulation time: 00 hr 00 min 42 sec)
Heartbeat CPU 0 instructions: 20000006 cycles: 10123629 heartbeat IPC: 1.684 cumulative IPC: 1.693 (Simulation time: 00 hr 01 min 23 sec)
Simulation finished CPU 0 instructions: 25000000 cycles: 14582421 cumulative IPC: 1.714 (Simulation time: 00 hr 02 min 01 sec)
Simulation complete CPU 0 instructions: 25000000 cycles: 14582421 cumulative IPC: 1.714 (Simulation time: 00 hr 02 min 01 sec)

ChampSim completed all CPUs

=== Simulation ===
CPU 0 runs /Users/aleksandrkozlov/Projects/microarch/hw2/traces/648.exchange2_s-387B.champsimtrace.xz

Region of Interest Statistics

CPU 0 cumulative IPC: 1.714 instructions: 25000000 cycles: 14582421
CPU 0 Branch Prediction Accuracy: 92.84% MPKI: 11.69 Average ROB Occupancy at Mispredict: 37.86
Branch type MPKI
BRANCH_DIRECT_JUMP: 0.4544
BRANCH_INDIRECT: 0
BRANCH_CONDITIONAL: 11.23
BRANCH_DIRECT_CALL: 0.00332
BRANCH_INDIRECT_CALL: 0
BRANCH_RETURN: 0.00332

cpu0->cpu0_STLB TOTAL        ACCESS:         37 HIT:          0 MISS:         37 MSHR_MERGE:          0
cpu0->cpu0_STLB LOAD         ACCESS:         37 HIT:          0 MISS:         37 MSHR_MERGE:          0
cpu0->cpu0_STLB RFO          ACCESS:          0 HIT:          0 MISS:          0 MSHR_MERGE:          0
cpu0->cpu0_STLB PREFETCH     ACCESS:          0 HIT:          0 MISS:          0 MSHR_MERGE:          0
cpu0->cpu0_STLB WRITE        ACCESS:          0 HIT:          0 MISS:          0 MSHR_MERGE:          0
cpu0->cpu0_STLB TRANSLATION  ACCESS:          0 HIT:          0 MISS:          0 MSHR_MERGE:          0
cpu0->cpu0_STLB PREFETCH REQUESTED:          0 ISSUED:          0 USEFUL:          0 USELESS:          0
cpu0->cpu0_STLB AVERAGE MISS LATENCY: 717.2 cycles
cpu0->cpu0_L2C TOTAL        ACCESS:       9484 HIT:       8306 MISS:       1178 MSHR_MERGE:          0
cpu0->cpu0_L2C LOAD         ACCESS:       9311 HIT:       8290 MISS:       1021 MSHR_MERGE:          0
cpu0->cpu0_L2C RFO          ACCESS:        108 HIT:          8 MISS:        100 MSHR_MERGE:          0
cpu0->cpu0_L2C PREFETCH     ACCESS:          0 HIT:          0 MISS:          0 MSHR_MERGE:          0
cpu0->cpu0_L2C WRITE        ACCESS:          8 HIT:          8 MISS:          0 MSHR_MERGE:          0
cpu0->cpu0_L2C TRANSLATION  ACCESS:         57 HIT:          0 MISS:         57 MSHR_MERGE:          0
cpu0->cpu0_L2C PREFETCH REQUESTED:          0 ISSUED:          0 USEFUL:          0 USELESS:          0
cpu0->cpu0_L2C AVERAGE MISS LATENCY: 188.8 cycles
cpu0->cpu0_L1I TOTAL        ACCESS:    1053673 HIT:    1037286 MISS:      16387 MSHR_MERGE:       7117
cpu0->cpu0_L1I LOAD         ACCESS:    1053673 HIT:    1037286 MISS:      16387 MSHR_MERGE:       7117
cpu0->cpu0_L1I RFO          ACCESS:          0 HIT:          0 MISS:          0 MSHR_MERGE:          0
cpu0->cpu0_L1I PREFETCH     ACCESS:          0 HIT:          0 MISS:          0 MSHR_MERGE:          0
cpu0->cpu0_L1I WRITE        ACCESS:          0 HIT:          0 MISS:          0 MSHR_MERGE:          0
cpu0->cpu0_L1I TRANSLATION  ACCESS:          0 HIT:          0 MISS:          0 MSHR_MERGE:          0
cpu0->cpu0_L1I PREFETCH REQUESTED:          0 ISSUED:          0 USEFUL:          0 USELESS:          0
cpu0->cpu0_L1I AVERAGE MISS LATENCY: 27.11 cycles
cpu0->cpu0_L1D TOTAL        ACCESS:    6935630 HIT:    6934630 MISS:       1000 MSHR_MERGE:        794
cpu0->cpu0_L1D LOAD         ACCESS:    3757071 HIT:    3756977 MISS:         94 MSHR_MERGE:         53
cpu0->cpu0_L1D RFO          ACCESS:          0 HIT:          0 MISS:          0 MSHR_MERGE:          0
cpu0->cpu0_L1D PREFETCH     ACCESS:          0 HIT:          0 MISS:          0 MSHR_MERGE:          0
cpu0->cpu0_L1D WRITE        ACCESS:    3178484 HIT:    3177635 MISS:        849 MSHR_MERGE:        741
cpu0->cpu0_L1D TRANSLATION  ACCESS:         75 HIT:         18 MISS:         57 MSHR_MERGE:          0
cpu0->cpu0_L1D PREFETCH REQUESTED:          0 ISSUED:          0 USEFUL:          0 USELESS:          0
cpu0->cpu0_L1D AVERAGE MISS LATENCY: 189.6 cycles
cpu0->cpu0_ITLB TOTAL        ACCESS:     833719 HIT:     833661 MISS:         58 MSHR_MERGE:         34
cpu0->cpu0_ITLB LOAD         ACCESS:     833719 HIT:     833661 MISS:         58 MSHR_MERGE:         34
cpu0->cpu0_ITLB RFO          ACCESS:          0 HIT:          0 MISS:          0 MSHR_MERGE:          0
cpu0->cpu0_ITLB PREFETCH     ACCESS:          0 HIT:          0 MISS:          0 MSHR_MERGE:          0
cpu0->cpu0_ITLB WRITE        ACCESS:          0 HIT:          0 MISS:          0 MSHR_MERGE:          0
cpu0->cpu0_ITLB TRANSLATION  ACCESS:          0 HIT:          0 MISS:          0 MSHR_MERGE:          0
cpu0->cpu0_ITLB PREFETCH REQUESTED:          0 ISSUED:          0 USEFUL:          0 USELESS:          0
cpu0->cpu0_ITLB AVERAGE MISS LATENCY: 714.6 cycles
cpu0->cpu0_DTLB TOTAL        ACCESS:    6340435 HIT:    6340389 MISS:         46 MSHR_MERGE:         33
cpu0->cpu0_DTLB LOAD         ACCESS:    6340435 HIT:    6340389 MISS:         46 MSHR_MERGE:         33
cpu0->cpu0_DTLB RFO          ACCESS:          0 HIT:          0 MISS:          0 MSHR_MERGE:          0
cpu0->cpu0_DTLB PREFETCH     ACCESS:          0 HIT:          0 MISS:          0 MSHR_MERGE:          0
cpu0->cpu0_DTLB WRITE        ACCESS:          0 HIT:          0 MISS:          0 MSHR_MERGE:          0
cpu0->cpu0_DTLB TRANSLATION  ACCESS:          0 HIT:          0 MISS:          0 MSHR_MERGE:          0
cpu0->cpu0_DTLB PREFETCH REQUESTED:          0 ISSUED:          0 USEFUL:          0 USELESS:          0
cpu0->cpu0_DTLB AVERAGE MISS LATENCY: 739.1 cycles
cpu0->LLC TOTAL        ACCESS:       1178 HIT:          0 MISS:       1178 MSHR_MERGE:          0
cpu0->LLC LOAD         ACCESS:       1021 HIT:          0 MISS:       1021 MSHR_MERGE:          0
cpu0->LLC RFO          ACCESS:        100 HIT:          0 MISS:        100 MSHR_MERGE:          0
cpu0->LLC PREFETCH     ACCESS:          0 HIT:          0 MISS:          0 MSHR_MERGE:          0
cpu0->LLC WRITE        ACCESS:          0 HIT:          0 MISS:          0 MSHR_MERGE:          0
cpu0->LLC TRANSLATION  ACCESS:         57 HIT:          0 MISS:         57 MSHR_MERGE:          0
cpu0->LLC PREFETCH REQUESTED:          0 ISSUED:          0 USEFUL:          0 USELESS:          0
cpu0->LLC AVERAGE MISS LATENCY: 172.8 cycles

DRAM Statistics

Channel 0 RQ ROW_BUFFER_HIT:         36
  ROW_BUFFER_MISS:       1142
  AVG DBUS CONGESTED CYCLE: 2.95
Channel 0 WQ ROW_BUFFER_HIT:          0
  ROW_BUFFER_MISS:          0
  FULL:          0
Channel 0 REFRESHES ISSUED:       1215
