[VMEM] WARNING: physical memory size is smaller than virtual memory size.

*** ChampSim Multicore Out-of-Order Simulator ***
Warmup Instructions: 5000000
Simulation Instructions: 25000000
Number of CPUs: 1
Page size: 4096

Off-chip DRAM Size: 16 GiB Channels: 1 Width: 64-bit Data Rate: 3205 MT/s
Warmup finished CPU 0 instructions: 5000001 cycles: 1471214 cumulative IPC: 3.399 (Simulation time: 00 hr 00 min 18 sec)
Warmup complete CPU 0 instructions: 5000001 cycles: 1471214 cumulative IPC: 3.399 (Simulation time: 00 hr 00 min 18 sec)
Heartbeat CPU 0 instructions: 10000004 cycles: 3937420 heartbeat IPC: 2.54 cumulative IPC: 2.027 (Simulation time: 00 hr 00 min 46 sec)
Heartbeat CPU 0 instructions: 20000005 cycles: 13343356 heartbeat IPC: 1.063 cumulative IPC: 1.263 (Simulation time: 00 hr 02 min 02 sec)
Simulation finished CPU 0 instructions: 25000001 cycles: 19188619 cumulative IPC: 1.303 (Simulation time: 00 hr 03 min 01 sec)
Simulation complete CPU 0 instructions: 25000001 cycles: 19188619 cumulative IPC: 1.303 (Simulation time: 00 hr 03 min 01 sec)

ChampSim completed all CPUs

=== Simulation ===
CPU 0 runs /Users/aleksandrkozlov/Projects/microarch/hw2/traces/654.roms_s-293B.champsimtrace.xz

Region of Interest Statistics

CPU 0 cumulative IPC: 1.303 instructions: 25000001 cycles: 19188619
CPU 0 Branch Prediction Accuracy: 99.78% MPKI: 0.02408 Average ROB Occupancy at Mispredict: 307.1
Branch type MPKI
BRANCH_DIRECT_JUMP: 0
BRANCH_INDIRECT: 0
BRANCH_CONDITIONAL: 0.02408
BRANCH_DIRECT_CALL: 0
BRANCH_INDIRECT_CALL: 0
BRANCH_RETURN: 0

cpu0->cpu0_STLB TOTAL        ACCESS:       6416 HIT:       4164 MISS:       2252 MSHR_MERGE:          0
cpu0->cpu0_STLB LOAD         ACCESS:       6416 HIT:       4164 MISS:       2252 MSHR_MERGE:          0
cpu0->cpu0_STLB RFO          ACCESS:          0 HIT:          0 MISS:          0 MSHR_MERGE:          0
cpu0->cpu0_STLB PREFETCH     ACCESS:          0 HIT:          0 MISS:          0 MSHR_MERGE:          0
cpu0->cpu0_STLB WRITE        ACCESS:          0 HIT:          0 MISS:          0 MSHR_MERGE:          0
cpu0->cpu0_STLB TRANSLATION  ACCESS:          0 HIT:          0 MISS:          0 MSHR_MERGE:          0
cpu0->cpu0_STLB PREFETCH REQUESTED:          0 ISSUED:          0 USEFUL:          0 USELESS:          0
cpu0->cpu0_STLB AVERAGE MISS LATENCY: 884.9 cycles
cpu0->cpu0_L2C TOTAL        ACCESS:     401556 HIT:     165533 MISS:     236023 MSHR_MERGE:          0
cpu0->cpu0_L2C LOAD         ACCESS:     146876 HIT:      39244 MISS:     107632 MSHR_MERGE:          0
cpu0->cpu0_L2C RFO          ACCESS:     124928 HIT:        714 MISS:     124214 MSHR_MERGE:          0
cpu0->cpu0_L2C PREFETCH     ACCESS:          0 HIT:          0 MISS:          0 MSHR_MERGE:          0
cpu0->cpu0_L2C WRITE        ACCESS:     125179 HIT:     125084 MISS:         95 MSHR_MERGE:          0
cpu0->cpu0_L2C TRANSLATION  ACCESS:       4573 HIT:        491 MISS:       4082 MSHR_MERGE:          0
cpu0->cpu0_L2C PREFETCH REQUESTED:          0 ISSUED:          0 USEFUL:          0 USELESS:          0
cpu0->cpu0_L2C AVERAGE MISS LATENCY: 172.9 cycles
cpu0->cpu0_L1I TOTAL        ACCESS:    4941036 HIT:    4941028 MISS:          8 MSHR_MERGE:          2
cpu0->cpu0_L1I LOAD         ACCESS:    4941036 HIT:    4941028 MISS:          8 MSHR_MERGE:          2
cpu0->cpu0_L1I RFO          ACCESS:          0 HIT:          0 MISS:          0 MSHR_MERGE:          0
cpu0->cpu0_L1I PREFETCH     ACCESS:          0 HIT:          0 MISS:          0 MSHR_MERGE:          0
cpu0->cpu0_L1I WRITE        ACCESS:          0 HIT:          0 MISS:          0 MSHR_MERGE:          0
cpu0->cpu0_L1I TRANSLATION  ACCESS:          0 HIT:          0 MISS:          0 MSHR_MERGE:          0
cpu0->cpu0_L1I PREFETCH REQUESTED:          0 ISSUED:          0 USEFUL:          0 USELESS:          0
cpu0->cpu0_L1I AVERAGE MISS LATENCY: 200 cycles
cpu0->cpu0_L1D TOTAL        ACCESS:    7645330 HIT:    7006668 MISS:     638662 MSHR_MERGE:     362262
cpu0->cpu0_L1D LOAD         ACCESS:    5273080 HIT:    5030651 MISS:     242429 MSHR_MERGE:      95559
cpu0->cpu0_L1D RFO          ACCESS:          0 HIT:          0 MISS:          0 MSHR_MERGE:          0
cpu0->cpu0_L1D PREFETCH     ACCESS:          0 HIT:          0 MISS:          0 MSHR_MERGE:          0
cpu0->cpu0_L1D WRITE        ACCESS:    2366627 HIT:    1974987 MISS:     391640 MSHR_MERGE:     266683
cpu0->cpu0_L1D TRANSLATION  ACCESS:       5623 HIT:       1030 MISS:       4593 MSHR_MERGE:         20
cpu0->cpu0_L1D PREFETCH REQUESTED:          0 ISSUED:          0 USEFUL:          0 USELESS:          0
cpu0->cpu0_L1D AVERAGE MISS LATENCY: 156.5 cycles
cpu0->cpu0_ITLB TOTAL        ACCESS:    3622413 HIT:    3622413 MISS:          0 MSHR_MERGE:          0
cpu0->cpu0_ITLB LOAD         ACCESS:    3622413 HIT:    3622413 MISS:          0 MSHR_MERGE:          0
cpu0->cpu0_ITLB RFO          ACCESS:          0 HIT:          0 MISS:          0 MSHR_MERGE:          0
cpu0->cpu0_ITLB PREFETCH     ACCESS:          0 HIT:          0 MISS:          0 MSHR_MERGE:          0
cpu0->cpu0_ITLB WRITE        ACCESS:          0 HIT:          0 MISS:          0 MSHR_MERGE:          0
cpu0->cpu0_ITLB TRANSLATION  ACCESS:          0 HIT:          0 MISS:          0 MSHR_MERGE:          0
cpu0->cpu0_ITLB PREFETCH REQUESTED:          0 ISSUED:          0 USEFUL:          0 USELESS:          0
cpu0->cpu0_ITLB AVERAGE MISS LATENCY: - cycles
cpu0->cpu0_DTLB TOTAL        ACCESS:    7204114 HIT:    7188243 MISS:      15871 MSHR_MERGE:       9455
cpu0->cpu0_DTLB LOAD         ACCESS:    7204114 HIT:    7188243 MISS:      15871 MSHR_MERGE:       9455
cpu0->cpu0_DTLB RFO          ACCESS:          0 HIT:          0 MISS:          0 MSHR_MERGE:          0
cpu0->cpu0_DTLB PREFETCH     ACCESS:          0 HIT:          0 MISS:          0 MSHR_MERGE:          0
cpu0->cpu0_DTLB WRITE        ACCESS:          0 HIT:          0 MISS:          0 MSHR_MERGE:          0
cpu0->cpu0_DTLB TRANSLATION  ACCESS:          0 HIT:          0 MISS:          0 MSHR_MERGE:          0
cpu0->cpu0_DTLB PREFETCH REQUESTED:          0 ISSUED:          0 USEFUL:          0 USELESS:          0
cpu0->cpu0_DTLB AVERAGE MISS LATENCY: 316 cycles
cpu0->LLC TOTAL        ACCESS:     357929 HIT:     198513 MISS:     159416 MSHR_MERGE:          0
cpu0->LLC LOAD         ACCESS:     107632 HIT:      43865 MISS:      63767 MSHR_MERGE:          0
cpu0->LLC RFO          ACCESS:     124214 HIT:      32585 MISS:      91629 MSHR_MERGE:          0
cpu0->LLC PREFETCH     ACCESS:          0 HIT:          0 MISS:          0 MSHR_MERGE:          0
cpu0->LLC WRITE        ACCESS:     122001 HIT:     121984 MISS:         17 MSHR_MERGE:          0
cpu0->LLC TRANSLATION  ACCESS:       4082 HIT:         79 MISS:       4003 MSHR_MERGE:          0
cpu0->LLC PREFETCH REQUESTED:          0 ISSUED:          0 USEFUL:          0 USELESS:          0
cpu0->LLC AVERAGE MISS LATENCY: 232.7 cycles

DRAM Statistics

Channel 0 RQ ROW_BUFFER_HIT:        657
  ROW_BUFFER_MISS:     158535
  AVG DBUS CONGESTED CYCLE: 6.947
Channel 0 WQ ROW_BUFFER_HIT:      29247
  ROW_BUFFER_MISS:      67894
  FULL:          0
Channel 0 REFRESHES ISSUED:       1599
