[VMEM] WARNING: physical memory size is smaller than virtual memory size.

*** ChampSim Multicore Out-of-Order Simulator ***
Warmup Instructions: 5000000
Simulation Instructions: 25000000
Number of CPUs: 1
Page size: 4096

Off-chip DRAM Size: 16 GiB Channels: 1 Width: 64-bit Data Rate: 3205 MT/s
Warmup finished CPU 0 instructions: 5000003 cycles: 1276643 cumulative IPC: 3.917 (Simulation time: 00 hr 00 min 14 sec)
Warmup complete CPU 0 instructions: 5000003 cycles: 1276643 cumulative IPC: 3.917 (Simulation time: 00 hr 00 min 14 sec)
Heartbeat CPU 0 instructions: 10000000 cycles: 4872615 heartbeat IPC: 2.052 cumulative IPC: 1.39 (Simulation time: 00 hr 00 min 34 sec)
Heartbeat CPU 0 instructions: 20000001 cycles: 11862882 heartbeat IPC: 1.431 cumulative IPC: 1.417 (Simulation time: 00 hr 01 min 12 sec)
Heartbeat CPU 0 instructions: 30000001 cycles: 19003405 heartbeat IPC: 1.4 cumulative IPC: 1.41 (Simulation time: 00 hr 01 min 48 sec)
Simulation finished CPU 0 instructions: 25000000 cycles: 17726772 cumulative IPC: 1.41 (Simulation time: 00 hr 01 min 48 sec)
Simulation complete CPU 0 instructions: 25000000 cycles: 17726772 cumulative IPC: 1.41 (Simulation time: 00 hr 01 min 48 sec)

ChampSim completed all CPUs

=== Simulation ===
CPU 0 runs /Users/aleksandrkozlov/Projects/microarch/hw2/traces/657.xz_s-4994B.champsimtrace.xz

Region of Interest Statistics

CPU 0 cumulative IPC: 1.41 instructions: 25000000 cycles: 17726772
CPU 0 Branch Prediction Accuracy: 85.81% MPKI: 14.9 Average ROB Occupancy at Mispredict: 29.01
Branch type MPKI
BRANCH_DIRECT_JUMP: 0.0002
BRANCH_INDIRECT: 0.00152
BRANCH_CONDITIONAL: 14.9
BRANCH_DIRECT_CALL: 0
BRANCH_INDIRECT_CALL: 0
BRANCH_RETURN: 8e-05

cpu0->cpu0_STLB TOTAL        ACCESS:         85 HIT:         12 MISS:         73 MSHR_MERGE:          0
cpu0->cpu0_STLB LOAD         ACCESS:         85 HIT:         12 MISS:         73 MSHR_MERGE:          0
cpu0->cpu0_STLB RFO          ACCESS:          0 HIT:          0 MISS:          0 MSHR_MERGE:          0
cpu0->cpu0_STLB PREFETCH     ACCESS:          0 HIT:          0 MISS:          0 MSHR_MERGE:          0
cpu0->cpu0_STLB WRITE        ACCESS:          0 HIT:          0 MISS:          0 MSHR_MERGE:          0
cpu0->cpu0_STLB TRANSLATION  ACCESS:          0 HIT:          0 MISS:          0 MSHR_MERGE:          0
cpu0->cpu0_STLB PREFETCH REQUESTED:          0 ISSUED:          0 USEFUL:          0 USELESS:          0
cpu0->cpu0_STLB AVERAGE MISS LATENCY: 689.8 cycles
cpu0->cpu0_L2C TOTAL        ACCESS:      13603 HIT:       9369 MISS:       4234 MSHR_MERGE:          0
cpu0->cpu0_L2C LOAD         ACCESS:       3812 HIT:       2523 MISS:       1289 MSHR_MERGE:          0
cpu0->cpu0_L2C RFO          ACCESS:       4137 HIT:       1288 MISS:       2849 MSHR_MERGE:          0
cpu0->cpu0_L2C PREFETCH     ACCESS:          0 HIT:          0 MISS:          0 MSHR_MERGE:          0
cpu0->cpu0_L2C WRITE        ACCESS:       5533 HIT:       5532 MISS:          1 MSHR_MERGE:          0
cpu0->cpu0_L2C TRANSLATION  ACCESS:        121 HIT:         26 MISS:         95 MSHR_MERGE:          0
cpu0->cpu0_L2C PREFETCH REQUESTED:          0 ISSUED:          0 USEFUL:          0 USELESS:          0
cpu0->cpu0_L2C AVERAGE MISS LATENCY: 166 cycles
cpu0->cpu0_L1I TOTAL        ACCESS:     526666 HIT:     526660 MISS:          6 MSHR_MERGE:          0
cpu0->cpu0_L1I LOAD         ACCESS:     526666 HIT:     526660 MISS:          6 MSHR_MERGE:          0
cpu0->cpu0_L1I RFO          ACCESS:          0 HIT:          0 MISS:          0 MSHR_MERGE:          0
cpu0->cpu0_L1I PREFETCH     ACCESS:          0 HIT:          0 MISS:          0 MSHR_MERGE:          0
cpu0->cpu0_L1I WRITE        ACCESS:          0 HIT:          0 MISS:          0 MSHR_MERGE:          0
cpu0->cpu0_L1I TRANSLATION  ACCESS:          0 HIT:          0 MISS:          0 MSHR_MERGE:          0
cpu0->cpu0_L1I PREFETCH REQUESTED:          0 ISSUED:          0 USEFUL:          0 USELESS:          0
cpu0->cpu0_L1I AVERAGE MISS LATENCY: 176.3 cycles
cpu0->cpu0_L1D TOTAL        ACCESS:    3918714 HIT:    3891317 MISS:      27397 MSHR_MERGE:      19332
cpu0->cpu0_L1D LOAD         ACCESS:    2359003 HIT:    2354052 MISS:       4951 MSHR_MERGE:       1145
cpu0->cpu0_L1D RFO          ACCESS:          0 HIT:          0 MISS:          0 MSHR_MERGE:          0
cpu0->cpu0_L1D PREFETCH     ACCESS:          0 HIT:          0 MISS:          0 MSHR_MERGE:          0
cpu0->cpu0_L1D WRITE        ACCESS:    1559565 HIT:    1537240 MISS:      22325 MSHR_MERGE:      18187
cpu0->cpu0_L1D TRANSLATION  ACCESS:        146 HIT:         25 MISS:        121 MSHR_MERGE:          0
cpu0->cpu0_L1D PREFETCH REQUESTED:          0 ISSUED:          0 USEFUL:          0 USELESS:          0
cpu0->cpu0_L1D AVERAGE MISS LATENCY: 95.55 cycles
cpu0->cpu0_ITLB TOTAL        ACCESS:     469883 HIT:     469883 MISS:          0 MSHR_MERGE:          0
cpu0->cpu0_ITLB LOAD         ACCESS:     469883 HIT:     469883 MISS:          0 MSHR_MERGE:          0
cpu0->cpu0_ITLB RFO          ACCESS:          0 HIT:          0 MISS:          0 MSHR_MERGE:          0
cpu0->cpu0_ITLB PREFETCH     ACCESS:          0 HIT:          0 MISS:          0 MSHR_MERGE:          0
cpu0->cpu0_ITLB WRITE        ACCESS:          0 HIT:          0 MISS:          0 MSHR_MERGE:          0
cpu0->cpu0_ITLB TRANSLATION  ACCESS:          0 HIT:          0 MISS:          0 MSHR_MERGE:          0
cpu0->cpu0_ITLB PREFETCH REQUESTED:          0 ISSUED:          0 USEFUL:          0 USELESS:          0
cpu0->cpu0_ITLB AVERAGE MISS LATENCY: - cycles
cpu0->cpu0_DTLB TOTAL        ACCESS:    3688968 HIT:    3688603 MISS:        365 MSHR_MERGE:        280
cpu0->cpu0_DTLB LOAD         ACCESS:    3688968 HIT:    3688603 MISS:        365 MSHR_MERGE:        280
cpu0->cpu0_DTLB RFO          ACCESS:          0 HIT:          0 MISS:          0 MSHR_MERGE:          0
cpu0->cpu0_DTLB PREFETCH     ACCESS:          0 HIT:          0 MISS:          0 MSHR_MERGE:          0
cpu0->cpu0_DTLB WRITE        ACCESS:          0 HIT:          0 MISS:          0 MSHR_MERGE:          0
cpu0->cpu0_DTLB TRANSLATION  ACCESS:          0 HIT:          0 MISS:          0 MSHR_MERGE:          0
cpu0->cpu0_DTLB PREFETCH REQUESTED:          0 ISSUED:          0 USEFUL:          0 USELESS:          0
cpu0->cpu0_DTLB AVERAGE MISS LATENCY: 598.3 cycles
cpu0->LLC TOTAL        ACCESS:       4250 HIT:         18 MISS:       4232 MSHR_MERGE:          0
cpu0->LLC LOAD         ACCESS:       1289 HIT:          1 MISS:       1288 MSHR_MERGE:          0
cpu0->LLC RFO          ACCESS:       2849 HIT:          0 MISS:       2849 MSHR_MERGE:          0
cpu0->LLC PREFETCH     ACCESS:          0 HIT:          0 MISS:          0 MSHR_MERGE:          0
cpu0->LLC WRITE        ACCESS:         17 HIT:         17 MISS:          0 MSHR_MERGE:          0
cpu0->LLC TRANSLATION  ACCESS:         95 HIT:          0 MISS:         95 MSHR_MERGE:          0
cpu0->LLC PREFETCH REQUESTED:          0 ISSUED:          0 USEFUL:          0 USELESS:          0
cpu0->LLC AVERAGE MISS LATENCY: 150.1 cycles

DRAM Statistics

Channel 0 RQ ROW_BUFFER_HIT:        810
  ROW_BUFFER_MISS:       3422
  AVG DBUS CONGESTED CYCLE: 2.806
Channel 0 WQ ROW_BUFFER_HIT:          0
  ROW_BUFFER_MISS:          0
  FULL:          0
Channel 0 REFRESHES ISSUED:       1477
