[VMEM] WARNING: physical memory size is smaller than virtual memory size.

*** ChampSim Multicore Out-of-Order Simulator ***
Warmup Instructions: 5000000
Simulation Instructions: 25000000
Number of CPUs: 1
Page size: 4096

Off-chip DRAM Size: 16 GiB Channels: 1 Width: 64-bit Data Rate: 3205 MT/s
Warmup finished CPU 0 instructions: 5000003 cycles: 1752025 cumulative IPC: 2.854 (Simulation time: 00 hr 00 min 23 sec)
Warmup complete CPU 0 instructions: 5000003 cycles: 1752025 cumulative IPC: 2.854 (Simulation time: 00 hr 00 min 23 sec)
Heartbeat CPU 0 instructions: 10000002 cycles: 20037552 heartbeat IPC: 0.4991 cumulative IPC: 0.2734 (Simulation time: 00 hr 01 min 49 sec)
Heartbeat CPU 0 instructions: 20000002 cycles: 56389471 heartbeat IPC: 0.2751 cumulative IPC: 0.2745 (Simulation time: 00 hr 04 min 56 sec)
Heartbeat CPU 0 instructions: 30000004 cycles: 92763518 heartbeat IPC: 0.2749 cumulative IPC: 0.2747 (Simulation time: 00 hr 07 min 55 sec)
Simulation finished CPU 0 instructions: 25000001 cycles: 91011493 cumulative IPC: 0.2747 (Simulation time: 00 hr 07 min 55 sec)
Simulation complete CPU 0 instructions: 25000001 cycles: 91011493 cumulative IPC: 0.2747 (Simulation time: 00 hr 07 min 55 sec)

ChampSim completed all CPUs

=== Simulation ===
CPU 0 runs /Users/aleksandrkozlov/Projects/microarch/hw2/traces/602.gcc_s-1850B.champsimtrace.xz

Region of Interest Statistics

CPU 0 cumulative IPC: 0.2747 instructions: 25000001 cycles: 91011493
CPU 0 Branch Prediction Accuracy: 96.46% MPKI: 9.089 Average ROB Occupancy at Mispredict: 55.25
Branch type MPKI
BRANCH_DIRECT_JUMP: 0.01196
BRANCH_INDIRECT: 0
BRANCH_CONDITIONAL: 9.077
BRANCH_DIRECT_CALL: 0
BRANCH_INDIRECT_CALL: 0
BRANCH_RETURN: 0

cpu0->cpu0_STLB TOTAL        ACCESS:       8294 HIT:        659 MISS:       7635 MSHR_MERGE:          0
cpu0->cpu0_STLB LOAD         ACCESS:       8294 HIT:        659 MISS:       7635 MSHR_MERGE:          0
cpu0->cpu0_STLB RFO          ACCESS:          0 HIT:          0 MISS:          0 MSHR_MERGE:          0
cpu0->cpu0_STLB PREFETCH     ACCESS:          0 HIT:          0 MISS:          0 MSHR_MERGE:          0
cpu0->cpu0_STLB WRITE        ACCESS:          0 HIT:          0 MISS:          0 MSHR_MERGE:          0
cpu0->cpu0_STLB TRANSLATION  ACCESS:          0 HIT:          0 MISS:          0 MSHR_MERGE:          0
cpu0->cpu0_STLB PREFETCH REQUESTED:          0 ISSUED:          0 USEFUL:          0 USELESS:          0
cpu0->cpu0_STLB AVERAGE MISS LATENCY: 685.9 cycles
cpu0->cpu0_L2C TOTAL        ACCESS:     614901 HIT:     160540 MISS:     454361 MSHR_MERGE:          0
cpu0->cpu0_L2C LOAD         ACCESS:     603722 HIT:     158684 MISS:     445038 MSHR_MERGE:          0
cpu0->cpu0_L2C RFO          ACCESS:        158 HIT:          0 MISS:        158 MSHR_MERGE:          0
cpu0->cpu0_L2C PREFETCH     ACCESS:          0 HIT:          0 MISS:          0 MSHR_MERGE:          0
cpu0->cpu0_L2C WRITE        ACCESS:       1579 HIT:       1579 MISS:          0 MSHR_MERGE:          0
cpu0->cpu0_L2C TRANSLATION  ACCESS:       9442 HIT:        277 MISS:       9165 MSHR_MERGE:          0
cpu0->cpu0_L2C PREFETCH REQUESTED:          0 ISSUED:          0 USEFUL:          0 USELESS:          0
cpu0->cpu0_L2C AVERAGE MISS LATENCY: 154.5 cycles
cpu0->cpu0_L1I TOTAL        ACCESS:     865636 HIT:     865636 MISS:          0 MSHR_MERGE:          0
cpu0->cpu0_L1I LOAD         ACCESS:     865636 HIT:     865636 MISS:          0 MSHR_MERGE:          0
cpu0->cpu0_L1I RFO          ACCESS:          0 HIT:          0 MISS:          0 MSHR_MERGE:          0
cpu0->cpu0_L1I PREFETCH     ACCESS:          0 HIT:          0 MISS:          0 MSHR_MERGE:          0
cpu0->cpu0_L1I WRITE        ACCESS:          0 HIT:          0 MISS:          0 MSHR_MERGE:          0
cpu0->cpu0_L1I TRANSLATION  ACCESS:          0 HIT:          0 MISS:          0 MSHR_MERGE:          0
cpu0->cpu0_L1I PREFETCH REQUESTED:          0 ISSUED:          0 USEFUL:          0 USELESS:          0
cpu0->cpu0_L1I AVERAGE MISS LATENCY: - cycles
cpu0->cpu0_L1D TOTAL        ACCESS:    6714627 HIT:    5549460 MISS:    1165167 MSHR_MERGE:     551845
cpu0->cpu0_L1D LOAD         ACCESS:    4541750 HIT:    3386185 MISS:    1155565 MSHR_MERGE:     551843
cpu0->cpu0_L1D RFO          ACCESS:          0 HIT:          0 MISS:          0 MSHR_MERGE:          0
cpu0->cpu0_L1D PREFETCH     ACCESS:          0 HIT:          0 MISS:          0 MSHR_MERGE:          0
cpu0->cpu0_L1D WRITE        ACCESS:    2157534 HIT:    2157376 MISS:        158 MSHR_MERGE:          0
cpu0->cpu0_L1D TRANSLATION  ACCESS:      15343 HIT:       5899 MISS:       9444 MSHR_MERGE:          2
cpu0->cpu0_L1D PREFETCH REQUESTED:          0 ISSUED:          0 USEFUL:          0 USELESS:          0
cpu0->cpu0_L1D AVERAGE MISS LATENCY: 123.2 cycles
cpu0->cpu0_ITLB TOTAL        ACCESS:     725076 HIT:     725076 MISS:          0 MSHR_MERGE:          0
cpu0->cpu0_ITLB LOAD         ACCESS:     725076 HIT:     725076 MISS:          0 MSHR_MERGE:          0
cpu0->cpu0_ITLB RFO          ACCESS:          0 HIT:          0 MISS:          0 MSHR_MERGE:          0
cpu0->cpu0_ITLB PREFETCH     ACCESS:          0 HIT:          0 MISS:          0 MSHR_MERGE:          0
cpu0->cpu0_ITLB WRITE        ACCESS:          0 HIT:          0 MISS:          0 MSHR_MERGE:          0
cpu0->cpu0_ITLB TRANSLATION  ACCESS:          0 HIT:          0 MISS:          0 MSHR_MERGE:          0
cpu0->cpu0_ITLB PREFETCH REQUESTED:          0 ISSUED:          0 USEFUL:          0 USELESS:          0
cpu0->cpu0_ITLB AVERAGE MISS LATENCY: - cycles
cpu0->cpu0_DTLB TOTAL        ACCESS:    6194303 HIT:    6177199 MISS:      17104 MSHR_MERGE:       8810
cpu0->cpu0_DTLB LOAD         ACCESS:    6194303 HIT:    6177199 MISS:      17104 MSHR_MERGE:       8810
cpu0->cpu0_DTLB RFO          ACCESS:          0 HIT:          0 MISS:          0 MSHR_MERGE:          0
cpu0->cpu0_DTLB PREFETCH     ACCESS:          0 HIT:          0 MISS:          0 MSHR_MERGE:          0
cpu0->cpu0_DTLB WRITE        ACCESS:          0 HIT:          0 MISS:          0 MSHR_MERGE:          0
cpu0->cpu0_DTLB TRANSLATION  ACCESS:          0 HIT:          0 MISS:          0 MSHR_MERGE:          0
cpu0->cpu0_DTLB PREFETCH REQUESTED:          0 ISSUED:          0 USEFUL:          0 USELESS:          0
cpu0->cpu0_DTLB AVERAGE MISS LATENCY: 637.3 cycles
cpu0->LLC TOTAL        ACCESS:     455023 HIT:       1332 MISS:     453691 MSHR_MERGE:          0
cpu0->LLC LOAD         ACCESS:     445038 HIT:        630 MISS:     444408 MSHR_MERGE:          0
cpu0->LLC RFO          ACCESS:        158 HIT:          0 MISS:        158 MSHR_MERGE:          0
cpu0->LLC PREFETCH     ACCESS:          0 HIT:          0 MISS:          0 MSHR_MERGE:          0
cpu0->LLC WRITE        ACCESS:        662 HIT:        661 MISS:          1 MSHR_MERGE:          0
cpu0->LLC TRANSLATION  ACCESS:       9165 HIT:         41 MISS:       9124 MSHR_MERGE:          0
cpu0->LLC PREFETCH REQUESTED:          0 ISSUED:          0 USEFUL:          0 USELESS:          0
cpu0->LLC AVERAGE MISS LATENCY: 138.7 cycles

DRAM Statistics

Channel 0 RQ ROW_BUFFER_HIT:     141657
  ROW_BUFFER_MISS:     312034
  AVG DBUS CONGESTED CYCLE: 24.34
Channel 0 WQ ROW_BUFFER_HIT:        205
  ROW_BUFFER_MISS:        481
  FULL:          0
Channel 0 REFRESHES ISSUED:       7584
