[VMEM] WARNING: physical memory size is smaller than virtual memory size.

*** ChampSim Multicore Out-of-Order Simulator ***
Warmup Instructions: 5000000
Simulation Instructions: 25000000
Number of CPUs: 1
Page size: 4096

Off-chip DRAM Size: 16 GiB Channels: 1 Width: 64-bit Data Rate: 3205 MT/s
Warmup finished CPU 0 instructions: 5000001 cycles: 2093213 cumulative IPC: 2.389 (Simulation time: 00 hr 00 min 27 sec)
Warmup complete CPU 0 instructions: 5000001 cycles: 2093213 cumulative IPC: 2.389 (Simulation time: 00 hr 00 min 27 sec)
Heartbeat CPU 0 instructions: 10000004 cycles: 23346552 heartbeat IPC: 0.4283 cumulative IPC: 0.2353 (Simulation time: 00 hr 03 min 17 sec)
Heartbeat CPU 0 instructions: 20000006 cycles: 64822783 heartbeat IPC: 0.2411 cumulative IPC: 0.2391 (Simulation time: 00 hr 09 min 07 sec)
Simulation finished CPU 0 instructions: 25000001 cycles: 103971732 cumulative IPC: 0.2404 (Simulation time: 00 hr 13 min 26 sec)
Simulation complete CPU 0 instructions: 25000001 cycles: 103971732 cumulative IPC: 0.2404 (Simulation time: 00 hr 13 min 26 sec)

ChampSim completed all CPUs

=== Simulation ===
CPU 0 runs /Users/aleksandrkozlov/Projects/microarch/hw2/traces/605.mcf_s-1536B.champsimtrace.xz

Region of Interest Statistics

CPU 0 cumulative IPC: 0.2404 instructions: 25000001 cycles: 103971732
CPU 0 Branch Prediction Accuracy: 99.99% MPKI: 0.02256 Average ROB Occupancy at Mispredict: 298.3
Branch type MPKI
BRANCH_DIRECT_JUMP: 0
BRANCH_INDIRECT: 0
BRANCH_CONDITIONAL: 0.02256
BRANCH_DIRECT_CALL: 0
BRANCH_INDIRECT_CALL: 0
BRANCH_RETURN: 0

cpu0->cpu0_STLB TOTAL        ACCESS:     691060 HIT:     130059 MISS:     561001 MSHR_MERGE:          0
cpu0->cpu0_STLB LOAD         ACCESS:     691060 HIT:     130059 MISS:     561001 MSHR_MERGE:          0
cpu0->cpu0_STLB RFO          ACCESS:          0 HIT:          0 MISS:          0 MSHR_MERGE:          0
cpu0->cpu0_STLB PREFETCH     ACCESS:          0 HIT:          0 MISS:          0 MSHR_MERGE:          0
cpu0->cpu0_STLB WRITE        ACCESS:          0 HIT:          0 MISS:          0 MSHR_MERGE:          0
cpu0->cpu0_STLB TRANSLATION  ACCESS:          0 HIT:          0 MISS:          0 MSHR_MERGE:          0
cpu0->cpu0_STLB PREFETCH REQUESTED:          0 ISSUED:          0 USEFUL:          0 USELESS:          0
cpu0->cpu0_STLB AVERAGE MISS LATENCY: 84.37 cycles
cpu0->cpu0_L2C TOTAL        ACCESS:    2899653 HIT:    1219795 MISS:    1679858 MSHR_MERGE:          0
cpu0->cpu0_L2C LOAD         ACCESS:    1154495 HIT:     403829 MISS:     750666 MSHR_MERGE:          0
cpu0->cpu0_L2C RFO          ACCESS:      71344 HIT:      19290 MISS:      52054 MSHR_MERGE:          0
cpu0->cpu0_L2C PREFETCH     ACCESS:          0 HIT:          0 MISS:          0 MSHR_MERGE:          0
cpu0->cpu0_L2C WRITE        ACCESS:     556355 HIT:     556355 MISS:          0 MSHR_MERGE:          0
cpu0->cpu0_L2C TRANSLATION  ACCESS:    1117459 HIT:     240321 MISS:     877138 MSHR_MERGE:          0
cpu0->cpu0_L2C PREFETCH REQUESTED:          0 ISSUED:          0 USEFUL:          0 USELESS:          0
cpu0->cpu0_L2C AVERAGE MISS LATENCY: 108.5 cycles
cpu0->cpu0_L1I TOTAL        ACCESS:    5561149 HIT:    5561149 MISS:          0 MSHR_MERGE:          0
cpu0->cpu0_L1I LOAD         ACCESS:    5561149 HIT:    5561149 MISS:          0 MSHR_MERGE:          0
cpu0->cpu0_L1I RFO          ACCESS:          0 HIT:          0 MISS:          0 MSHR_MERGE:          0
cpu0->cpu0_L1I PREFETCH     ACCESS:          0 HIT:          0 MISS:          0 MSHR_MERGE:          0
cpu0->cpu0_L1I WRITE        ACCESS:          0 HIT:          0 MISS:          0 MSHR_MERGE:          0
cpu0->cpu0_L1I TRANSLATION  ACCESS:          0 HIT:          0 MISS:          0 MSHR_MERGE:          0
cpu0->cpu0_L1I PREFETCH REQUESTED:          0 ISSUED:          0 USEFUL:          0 USELESS:          0
cpu0->cpu0_L1I AVERAGE MISS LATENCY: - cycles
cpu0->cpu0_L1D TOTAL        ACCESS:    7302894 HIT:    4116265 MISS:    3186629 MSHR_MERGE:     843316
cpu0->cpu0_L1D LOAD         ACCESS:    4986303 HIT:    3000173 MISS:    1986130 MSHR_MERGE:     831635
cpu0->cpu0_L1D RFO          ACCESS:          0 HIT:          0 MISS:          0 MSHR_MERGE:          0
cpu0->cpu0_L1D PREFETCH     ACCESS:          0 HIT:          0 MISS:          0 MSHR_MERGE:          0
cpu0->cpu0_L1D WRITE        ACCESS:    1108563 HIT:    1037188 MISS:      71375 MSHR_MERGE:         16
cpu0->cpu0_L1D TRANSLATION  ACCESS:    1208028 HIT:      78904 MISS:    1129124 MSHR_MERGE:      11665
cpu0->cpu0_L1D PREFETCH REQUESTED:          0 ISSUED:          0 USEFUL:          0 USELESS:          0
cpu0->cpu0_L1D AVERAGE MISS LATENCY: 86.61 cycles
cpu0->cpu0_ITLB TOTAL        ACCESS:    4983501 HIT:    4983501 MISS:          0 MSHR_MERGE:          0
cpu0->cpu0_ITLB LOAD         ACCESS:    4983501 HIT:    4983501 MISS:          0 MSHR_MERGE:          0
cpu0->cpu0_ITLB RFO          ACCESS:          0 HIT:          0 MISS:          0 MSHR_MERGE:          0
cpu0->cpu0_ITLB PREFETCH     ACCESS:          0 HIT:          0 MISS:          0 MSHR_MERGE:          0
cpu0->cpu0_ITLB WRITE        ACCESS:          0 HIT:          0 MISS:          0 MSHR_MERGE:          0
cpu0->cpu0_ITLB TRANSLATION  ACCESS:          0 HIT:          0 MISS:          0 MSHR_MERGE:          0
cpu0->cpu0_ITLB PREFETCH REQUESTED:          0 ISSUED:          0 USEFUL:          0 USELESS:          0
cpu0->cpu0_ITLB AVERAGE MISS LATENCY: - cycles
cpu0->cpu0_DTLB TOTAL        ACCESS:    6049251 HIT:    4358885 MISS:    1690366 MSHR_MERGE:     999306
cpu0->cpu0_DTLB LOAD         ACCESS:    6049251 HIT:    4358885 MISS:    1690366 MSHR_MERGE:     999306
cpu0->cpu0_DTLB RFO          ACCESS:          0 HIT:          0 MISS:          0 MSHR_MERGE:          0
cpu0->cpu0_DTLB PREFETCH     ACCESS:          0 HIT:          0 MISS:          0 MSHR_MERGE:          0
cpu0->cpu0_DTLB WRITE        ACCESS:          0 HIT:          0 MISS:          0 MSHR_MERGE:          0
cpu0->cpu0_DTLB TRANSLATION  ACCESS:          0 HIT:          0 MISS:          0 MSHR_MERGE:          0
cpu0->cpu0_DTLB PREFETCH REQUESTED:          0 ISSUED:          0 USEFUL:          0 USELESS:          0
cpu0->cpu0_DTLB AVERAGE MISS LATENCY: 74.3 cycles
cpu0->LLC TOTAL        ACCESS:    2234250 HIT:    1550520 MISS:     683730 MSHR_MERGE:          0
cpu0->LLC LOAD         ACCESS:     750666 HIT:     115948 MISS:     634718 MSHR_MERGE:          0
cpu0->LLC RFO          ACCESS:      52054 HIT:      52046 MISS:          8 MSHR_MERGE:          0
cpu0->LLC PREFETCH     ACCESS:          0 HIT:          0 MISS:          0 MSHR_MERGE:          0
cpu0->LLC WRITE        ACCESS:     554392 HIT:     554392 MISS:          0 MSHR_MERGE:          0
cpu0->LLC TRANSLATION  ACCESS:     877138 HIT:     828134 MISS:      49004 MSHR_MERGE:          0
cpu0->LLC PREFETCH REQUESTED:          0 ISSUED:          0 USEFUL:          0 USELESS:          0
cpu0->LLC AVERAGE MISS LATENCY: 228.7 cycles

DRAM Statistics

Channel 0 RQ ROW_BUFFER_HIT:        149
  ROW_BUFFER_MISS:     683579
  AVG DBUS CONGESTED CYCLE: 5.83
Channel 0 WQ ROW_BUFFER_HIT:     182335
  ROW_BUFFER_MISS:     371872
  FULL:          0
Channel 0 REFRESHES ISSUED:       8664
