[VMEM] WARNING: physical memory size is smaller than virtual memory size.

*** ChampSim Multicore Out-of-Order Simulator ***
Warmup Instructions: 5000000
Simulation Instructions: 25000000
Number of CPUs: 1
Page size: 4096

Off-chip DRAM Size: 16 GiB Channels: 1 Width: 64-bit Data Rate: 3205 MT/s
Warmup finished CPU 0 instructions: 5000004 cycles: 1498026 cumulative IPC: 3.338 (Simulation time: 00 hr 00 min 25 sec)
Warmup complete CPU 0 instructions: 5000004 cycles: 1498026 cumulative IPC: 3.338 (Simulation time: 00 hr 00 min 25 sec)
Heartbeat CPU 0 instructions: 10000002 cycles: 4424237 heartbeat IPC: 2.26 cumulative IPC: 1.709 (Simulation time: 00 hr 00 min 56 sec)
Heartbeat CPU 0 instructions: 20000002 cycles: 10562443 heartbeat IPC: 1.629 cumulative IPC: 1.655 (Simulation time: 00 hr 02 min 00 sec)
Heartbeat CPU 0 instructions: 30000006 cycles: 16697307 heartbeat IPC: 1.63 cumulative IPC: 1.645 (Simulation time: 00 hr 03 min 06 sec)
Simulation finished CPU 0 instructions: 25000002 cycles: 15199281 cumulative IPC: 1.645 (Simulation time: 00 hr 03 min 06 sec)
Simulation complete CPU 0 instructions: 25000002 cycles: 15199281 cumulative IPC: 1.645 (Simulation time: 00 hr 03 min 06 sec)

ChampSim completed all CPUs

=== Simulation ===
CPU 0 runs /Users/aleksandrkozlov/Projects/microarch/hw2/traces/607.cactuBSSN_s-2421B.champsimtrace.xz

Region of Interest Statistics

CPU 0 cumulative IPC: 1.645 instructions: 25000002 cycles: 15199281
CPU 0 Branch Prediction Accuracy: 89.58% MPKI: 0.9362 Average ROB Occupancy at Mispredict: 324
Branch type MPKI
BRANCH_DIRECT_JUMP: 0.00132
BRANCH_INDIRECT: 8e-05
BRANCH_CONDITIONAL: 0.5683
BRANCH_DIRECT_CALL: 0.00156
BRANCH_INDIRECT_CALL: 0
BRANCH_RETURN: 0.3649

cpu0->cpu0_STLB TOTAL        ACCESS:     964665 HIT:     963638 MISS:       1027 MSHR_MERGE:          0
cpu0->cpu0_STLB LOAD         ACCESS:     964665 HIT:     963638 MISS:       1027 MSHR_MERGE:          0
cpu0->cpu0_STLB RFO          ACCESS:          0 HIT:          0 MISS:          0 MSHR_MERGE:          0
cpu0->cpu0_STLB PREFETCH     ACCESS:          0 HIT:          0 MISS:          0 MSHR_MERGE:          0
cpu0->cpu0_STLB WRITE        ACCESS:          0 HIT:          0 MISS:          0 MSHR_MERGE:          0
cpu0->cpu0_STLB TRANSLATION  ACCESS:          0 HIT:          0 MISS:          0 MSHR_MERGE:          0
cpu0->cpu0_STLB PREFETCH REQUESTED:          0 ISSUED:          0 USEFUL:          0 USELESS:          0
cpu0->cpu0_STLB AVERAGE MISS LATENCY: 816.6 cycles
cpu0->cpu0_L2C TOTAL        ACCESS:    2662506 HIT:    2522200 MISS:     140306 MSHR_MERGE:          0
cpu0->cpu0_L2C LOAD         ACCESS:    2337168 HIT:    2215478 MISS:     121690 MSHR_MERGE:          0
cpu0->cpu0_L2C RFO          ACCESS:     153261 HIT:     137164 MISS:      16097 MSHR_MERGE:          0
cpu0->cpu0_L2C PREFETCH     ACCESS:          0 HIT:          0 MISS:          0 MSHR_MERGE:          0
cpu0->cpu0_L2C WRITE        ACCESS:     169523 HIT:     169516 MISS:          7 MSHR_MERGE:          0
cpu0->cpu0_L2C TRANSLATION  ACCESS:       2554 HIT:         42 MISS:       2512 MSHR_MERGE:          0
cpu0->cpu0_L2C PREFETCH REQUESTED:          0 ISSUED:          0 USEFUL:          0 USELESS:          0
cpu0->cpu0_L2C AVERAGE MISS LATENCY: 121 cycles
cpu0->cpu0_L1I TOTAL        ACCESS:    5321957 HIT:    4055302 MISS:    1266655 MSHR_MERGE:     616548
cpu0->cpu0_L1I LOAD         ACCESS:    5321957 HIT:    4055302 MISS:    1266655 MSHR_MERGE:     616548
cpu0->cpu0_L1I RFO          ACCESS:          0 HIT:          0 MISS:          0 MSHR_MERGE:          0
cpu0->cpu0_L1I PREFETCH     ACCESS:          0 HIT:          0 MISS:          0 MSHR_MERGE:          0
cpu0->cpu0_L1I WRITE        ACCESS:          0 HIT:          0 MISS:          0 MSHR_MERGE:          0
cpu0->cpu0_L1I TRANSLATION  ACCESS:          0 HIT:          0 MISS:          0 MSHR_MERGE:          0
cpu0->cpu0_L1I PREFETCH REQUESTED:          0 ISSUED:          0 USEFUL:          0 USELESS:          0
cpu0->cpu0_L1I AVERAGE MISS LATENCY: 7.304 cycles
cpu0->cpu0_L1D TOTAL        ACCESS:    9645263 HIT:    7668416 MISS:    1976847 MSHR_MERGE:     133935
cpu0->cpu0_L1D LOAD         ACCESS:    7634502 HIT:    5831117 MISS:    1803385 MSHR_MERGE:     116299
cpu0->cpu0_L1D RFO          ACCESS:          0 HIT:          0 MISS:          0 MSHR_MERGE:          0
cpu0->cpu0_L1D PREFETCH     ACCESS:          0 HIT:          0 MISS:          0 MSHR_MERGE:          0
cpu0->cpu0_L1D WRITE        ACCESS:    2008189 HIT:    1837284 MISS:     170905 MSHR_MERGE:      17633
cpu0->cpu0_L1D TRANSLATION  ACCESS:       2572 HIT:         15 MISS:       2557 MSHR_MERGE:          3
cpu0->cpu0_L1D PREFETCH REQUESTED:          0 ISSUED:          0 USEFUL:          0 USELESS:          0
cpu0->cpu0_L1D AVERAGE MISS LATENCY: 18.47 cycles
cpu0->cpu0_ITLB TOTAL        ACCESS:    4201193 HIT:    4201177 MISS:         16 MSHR_MERGE:          6
cpu0->cpu0_ITLB LOAD         ACCESS:    4201193 HIT:    4201177 MISS:         16 MSHR_MERGE:          6
cpu0->cpu0_ITLB RFO          ACCESS:          0 HIT:          0 MISS:          0 MSHR_MERGE:          0
cpu0->cpu0_ITLB PREFETCH     ACCESS:          0 HIT:          0 MISS:          0 MSHR_MERGE:          0
cpu0->cpu0_ITLB WRITE        ACCESS:          0 HIT:          0 MISS:          0 MSHR_MERGE:          0
cpu0->cpu0_ITLB TRANSLATION  ACCESS:          0 HIT:          0 MISS:          0 MSHR_MERGE:          0
cpu0->cpu0_ITLB PREFETCH REQUESTED:          0 ISSUED:          0 USEFUL:          0 USELESS:          0
cpu0->cpu0_ITLB AVERAGE MISS LATENCY: 794.6 cycles
cpu0->cpu0_DTLB TOTAL        ACCESS:    9118519 HIT:    8047582 MISS:    1070937 MSHR_MERGE:     106282
cpu0->cpu0_DTLB LOAD         ACCESS:    9118519 HIT:    8047582 MISS:    1070937 MSHR_MERGE:     106282
cpu0->cpu0_DTLB RFO          ACCESS:          0 HIT:          0 MISS:          0 MSHR_MERGE:          0
cpu0->cpu0_DTLB PREFETCH     ACCESS:          0 HIT:          0 MISS:          0 MSHR_MERGE:          0
cpu0->cpu0_DTLB WRITE        ACCESS:          0 HIT:          0 MISS:          0 MSHR_MERGE:          0
cpu0->cpu0_DTLB TRANSLATION  ACCESS:          0 HIT:          0 MISS:          0 MSHR_MERGE:          0
cpu0->cpu0_DTLB PREFETCH REQUESTED:          0 ISSUED:          0 USEFUL:          0 USELESS:          0
cpu0->cpu0_DTLB AVERAGE MISS LATENCY: 5.91 cycles
cpu0->LLC TOTAL        ACCESS:     156493 HIT:      89052 MISS:      67441 MSHR_MERGE:          0
cpu0->LLC LOAD         ACCESS:     121690 HIT:      70623 MISS:      51067 MSHR_MERGE:          0
cpu0->LLC RFO          ACCESS:      15998 HIT:       1258 MISS:      14740 MSHR_MERGE:          0
cpu0->LLC PREFETCH     ACCESS:          0 HIT:          0 MISS:          0 MSHR_MERGE:          0
cpu0->LLC WRITE        ACCESS:      16293 HIT:      16290 MISS:          3 MSHR_MERGE:          0
cpu0->LLC TRANSLATION  ACCESS:       2512 HIT:        881 MISS:       1631 MSHR_MERGE:          0
cpu0->LLC PREFETCH REQUESTED:          0 ISSUED:          0 USEFUL:          0 USELESS:          0
cpu0->LLC AVERAGE MISS LATENCY: 219.6 cycles

DRAM Statistics

Channel 0 RQ ROW_BUFFER_HIT:         68
  ROW_BUFFER_MISS:      67370
  AVG DBUS CONGESTED CYCLE: 10.73
Channel 0 WQ ROW_BUFFER_HIT:        856
  ROW_BUFFER_MISS:      10483
  FULL:          0
Channel 0 REFRESHES ISSUED:       1267
