[VMEM] WARNING: physical memory size is smaller than virtual memory size.

*** ChampSim Multicore Out-of-Order Simulator ***
Warmup Instructions: 5000000
Simulation Instructions: 25000000
Number of CPUs: 1
Page size: 4096

Off-chip DRAM Size: 16 GiB Channels: 1 Width: 64-bit Data Rate: 3205 MT/s
Warmup finished CPU 0 instructions: 5000001 cycles: 1775748 cumulative IPC: 2.816 (Simulation time: 00 hr 00 min 24 sec)
Warmup complete CPU 0 instructions: 5000001 cycles: 1775748 cumulative IPC: 2.816 (Simulation time: 00 hr 00 min 24 sec)
Heartbeat CPU 0 instructions: 10000001 cycles: 12692655 heartbeat IPC: 0.7879 cumulative IPC: 0.458 (Simulation time: 00 hr 02 min 03 sec)
Heartbeat CPU 0 instructions: 20000001 cycles: 34038461 heartbeat IPC: 0.4685 cumulative IPC: 0.4649 (Simulation time: 00 hr 05 min 31 sec)
Heartbeat CPU 0 instructions: 30000003 cycles: 55034801 heartbeat IPC: 0.4763 cumulative IPC: 0.4694 (Simulation time: 00 hr 08 min 48 sec)
Simulation finished CPU 0 instructions: 25000002 cycles: 53259053 cumulative IPC: 0.4694 (Simulation time: 00 hr 08 min 48 sec)
Simulation complete CPU 0 instructions: 25000002 cycles: 53259053 cumulative IPC: 0.4694 (Simulation time: 00 hr 08 min 48 sec)

ChampSim completed all CPUs

=== Simulation ===
CPU 0 runs /Users/aleksandrkozlov/Projects/microarch/hw2/traces/619.lbm_s-2676B.champsimtrace.xz

Region of Interest Statistics

CPU 0 cumulative IPC: 0.4694 instructions: 25000002 cycles: 53259053
CPU 0 Branch Prediction Accuracy: 97.37% MPKI: 0.4444 Average ROB Occupancy at Mispredict: 246.3
Branch type MPKI
BRANCH_DIRECT_JUMP: 0
BRANCH_INDIRECT: 0
BRANCH_CONDITIONAL: 0.4444
BRANCH_DIRECT_CALL: 0
BRANCH_INDIRECT_CALL: 0
BRANCH_RETURN: 0

cpu0->cpu0_STLB TOTAL        ACCESS:      31491 HIT:      14402 MISS:      17089 MSHR_MERGE:          0
cpu0->cpu0_STLB LOAD         ACCESS:      31491 HIT:      14402 MISS:      17089 MSHR_MERGE:          0
cpu0->cpu0_STLB RFO          ACCESS:          0 HIT:          0 MISS:          0 MSHR_MERGE:          0
cpu0->cpu0_STLB PREFETCH     ACCESS:          0 HIT:          0 MISS:          0 MSHR_MERGE:          0
cpu0->cpu0_STLB WRITE        ACCESS:          0 HIT:          0 MISS:          0 MSHR_MERGE:          0
cpu0->cpu0_STLB TRANSLATION  ACCESS:          0 HIT:          0 MISS:          0 MSHR_MERGE:          0
cpu0->cpu0_STLB PREFETCH REQUESTED:          0 ISSUED:          0 USEFUL:          0 USELESS:          0
cpu0->cpu0_STLB AVERAGE MISS LATENCY: 948.7 cycles
cpu0->cpu0_L2C TOTAL        ACCESS:    3375763 HIT:    2236226 MISS:    1139537 MSHR_MERGE:          0
cpu0->cpu0_L2C LOAD         ACCESS:     273390 HIT:         19 MISS:     273371 MSHR_MERGE:          0
cpu0->cpu0_L2C RFO          ACCESS:    1541545 HIT:     694623 MISS:     846922 MSHR_MERGE:          0
cpu0->cpu0_L2C PREFETCH     ACCESS:          0 HIT:          0 MISS:          0 MSHR_MERGE:          0
cpu0->cpu0_L2C WRITE        ACCESS:    1541584 HIT:    1541584 MISS:          0 MSHR_MERGE:          0
cpu0->cpu0_L2C TRANSLATION  ACCESS:      19244 HIT:          0 MISS:      19244 MSHR_MERGE:          0
cpu0->cpu0_L2C PREFETCH REQUESTED:          0 ISSUED:          0 USEFUL:          0 USELESS:          0
cpu0->cpu0_L2C AVERAGE MISS LATENCY: 483.5 cycles
cpu0->cpu0_L1I TOTAL        ACCESS:    4081043 HIT:    4081043 MISS:          0 MSHR_MERGE:          0
cpu0->cpu0_L1I LOAD         ACCESS:    4081043 HIT:    4081043 MISS:          0 MSHR_MERGE:          0
cpu0->cpu0_L1I RFO          ACCESS:          0 HIT:          0 MISS:          0 MSHR_MERGE:          0
cpu0->cpu0_L1I PREFETCH     ACCESS:          0 HIT:          0 MISS:          0 MSHR_MERGE:          0
cpu0->cpu0_L1I WRITE        ACCESS:          0 HIT:          0 MISS:          0 MSHR_MERGE:          0
cpu0->cpu0_L1I TRANSLATION  ACCESS:          0 HIT:          0 MISS:          0 MSHR_MERGE:          0
cpu0->cpu0_L1I PREFETCH REQUESTED:          0 ISSUED:          0 USEFUL:          0 USELESS:          0
cpu0->cpu0_L1I AVERAGE MISS LATENCY: - cycles
cpu0->cpu0_L1D TOTAL        ACCESS:    6042001 HIT:    3794303 MISS:    2247698 MSHR_MERGE:     413484
cpu0->cpu0_L1D LOAD         ACCESS:    1551506 HIT:     937226 MISS:     614280 MSHR_MERGE:     340890
cpu0->cpu0_L1D RFO          ACCESS:          0 HIT:          0 MISS:          0 MSHR_MERGE:          0
cpu0->cpu0_L1D PREFETCH     ACCESS:          0 HIT:          0 MISS:          0 MSHR_MERGE:          0
cpu0->cpu0_L1D WRITE        ACCESS:    4456299 HIT:    2842125 MISS:    1614174 MSHR_MERGE:      72594
cpu0->cpu0_L1D TRANSLATION  ACCESS:      34196 HIT:      14952 MISS:      19244 MSHR_MERGE:          0
cpu0->cpu0_L1D PREFETCH REQUESTED:          0 ISSUED:          0 USEFUL:          0 USELESS:          0
cpu0->cpu0_L1D AVERAGE MISS LATENCY: 309.9 cycles
cpu0->cpu0_ITLB TOTAL        ACCESS:    3048452 HIT:    3048452 MISS:          0 MSHR_MERGE:          0
cpu0->cpu0_ITLB LOAD         ACCESS:    3048452 HIT:    3048452 MISS:          0 MSHR_MERGE:          0
cpu0->cpu0_ITLB RFO          ACCESS:          0 HIT:          0 MISS:          0 MSHR_MERGE:          0
cpu0->cpu0_ITLB PREFETCH     ACCESS:          0 HIT:          0 MISS:          0 MSHR_MERGE:          0
cpu0->cpu0_ITLB WRITE        ACCESS:          0 HIT:          0 MISS:          0 MSHR_MERGE:          0
cpu0->cpu0_ITLB TRANSLATION  ACCESS:          0 HIT:          0 MISS:          0 MSHR_MERGE:          0
cpu0->cpu0_ITLB PREFETCH REQUESTED:          0 ISSUED:          0 USEFUL:          0 USELESS:          0
cpu0->cpu0_ITLB AVERAGE MISS LATENCY: - cycles
cpu0->cpu0_DTLB TOTAL        ACCESS:    5656871 HIT:    5561945 MISS:      94926 MSHR_MERGE:      63435
cpu0->cpu0_DTLB LOAD         ACCESS:    5656871 HIT:    5561945 MISS:      94926 MSHR_MERGE:      63435
cpu0->cpu0_DTLB RFO          ACCESS:          0 HIT:          0 MISS:          0 MSHR_MERGE:          0
cpu0->cpu0_DTLB PREFETCH     ACCESS:          0 HIT:          0 MISS:          0 MSHR_MERGE:          0
cpu0->cpu0_DTLB WRITE        ACCESS:          0 HIT:          0 MISS:          0 MSHR_MERGE:          0
cpu0->cpu0_DTLB TRANSLATION  ACCESS:          0 HIT:          0 MISS:          0 MSHR_MERGE:          0
cpu0->cpu0_DTLB PREFETCH REQUESTED:          0 ISSUED:          0 USEFUL:          0 USELESS:          0
cpu0->cpu0_DTLB AVERAGE MISS LATENCY: 520.4 cycles
cpu0->LLC TOTAL        ACCESS:    1986494 HIT:     873867 MISS:    1112627 MSHR_MERGE:          0
cpu0->LLC LOAD         ACCESS:     273371 HIT:          7 MISS:     273364 MSHR_MERGE:          0
cpu0->LLC RFO          ACCESS:     846921 HIT:      26906 MISS:     820015 MSHR_MERGE:          0
cpu0->LLC PREFETCH     ACCESS:          0 HIT:          0 MISS:          0 MSHR_MERGE:          0
cpu0->LLC WRITE        ACCESS:     846958 HIT:     846954 MISS:          4 MSHR_MERGE:          0
cpu0->LLC TRANSLATION  ACCESS:      19244 HIT:          0 MISS:      19244 MSHR_MERGE:          0
cpu0->LLC PREFETCH REQUESTED:          0 ISSUED:          0 USEFUL:          0 USELESS:          0
cpu0->LLC AVERAGE MISS LATENCY: 478.7 cycles

DRAM Statistics

Channel 0 RQ ROW_BUFFER_HIT:      57405
  ROW_BUFFER_MISS:    1055218
  AVG DBUS CONGESTED CYCLE: 7.2
Channel 0 WQ ROW_BUFFER_HIT:     131871
  ROW_BUFFER_MISS:     688157
  FULL:          0
Channel 0 REFRESHES ISSUED:       4439
