[VMEM] WARNING: physical memory size is smaller than virtual memory size.

*** ChampSim Multicore Out-of-Order Simulator ***
Warmup Instructions: 5000000
Simulation Instructions: 25000000
Number of CPUs: 1
Page size: 4096

Off-chip DRAM Size: 16 GiB Channels: 1 Width: 64-bit Data Rate: 3205 MT/s
Warmup finished CPU 0 instructions: 5000003 cycles: 3494769 cumulative IPC: 1.431 (Simulation time: 00 hr 00 min 39 sec)
Warmup complete CPU 0 instructions: 5000003 cycles: 3494769 cumulative IPC: 1.431 (Simulation time: 00 hr 00 min 39 sec)
Heartbeat CPU 0 instructions: 10000002 cycles: 23233797 heartbeat IPC: 0.4304 cumulative IPC: 0.2533 (Simulation time: 00 hr 02 min 14 sec)
Heartbeat CPU 0 instructions: 20000002 cycles: 63267220 heartbeat IPC: 0.2498 cumulative IPC: 0.251 (Simulation time: 00 hr 05 min 42 sec)
Heartbeat CPU 0 instructions: 30000003 cycles: 101090615 heartbeat IPC: 0.2644 cumulative IPC: 0.2562 (Simulation time: 00 hr 08 min 49 sec)
Simulation finished CPU 0 instructions: 25000000 cycles: 97595846 cumulative IPC: 0.2562 (Simulation time: 00 hr 08 min 49 sec)
Simulation complete CPU 0 instructions: 25000000 cycles: 97595846 cumulative IPC: 0.2562 (Simulation time: 00 hr 08 min 49 sec)

ChampSim completed all CPUs

=== Simulation ===
CPU 0 runs /Users/aleksandrkozlov/Projects/microarch/hw2/traces/620.omnetpp_s-141B.champsimtrace.xz

Region of Interest Statistics

CPU 0 cumulative IPC: 0.2562 instructions: 25000000 cycles: 97595846
CPU 0 Branch Prediction Accuracy: 92.08% MPKI: 16.7 Average ROB Occupancy at Mispredict: 37.67
Branch type MPKI
BRANCH_DIRECT_JUMP: 0.8414
BRANCH_INDIRECT: 0.3648
BRANCH_CONDITIONAL: 14.2
BRANCH_DIRECT_CALL: 0.00052
BRANCH_INDIRECT_CALL: 0.8609
BRANCH_RETURN: 0.4358

cpu0->cpu0_STLB TOTAL        ACCESS:     562856 HIT:     442378 MISS:     120478 MSHR_MERGE:          0
cpu0->cpu0_STLB LOAD         ACCESS:     562856 HIT:     442378 MISS:     120478 MSHR_MERGE:          0
cpu0->cpu0_STLB RFO          ACCESS:          0 HIT:          0 MISS:          0 MSHR_MERGE:          0
cpu0->cpu0_STLB PREFETCH     ACCESS:          0 HIT:          0 MISS:          0 MSHR_MERGE:          0
cpu0->cpu0_STLB WRITE        ACCESS:          0 HIT:          0 MISS:          0 MSHR_MERGE:          0
cpu0->cpu0_STLB TRANSLATION  ACCESS:          0 HIT:          0 MISS:          0 MSHR_MERGE:          0
cpu0->cpu0_STLB PREFETCH REQUESTED:          0 ISSUED:          0 USEFUL:          0 USELESS:          0
cpu0->cpu0_STLB AVERAGE MISS LATENCY: 360.4 cycles
cpu0->cpu0_L2C TOTAL        ACCESS:    1018014 HIT:     447931 MISS:     570083 MSHR_MERGE:          0
cpu0->cpu0_L2C LOAD         ACCESS:     451832 HIT:     132282 MISS:     319550 MSHR_MERGE:          0
cpu0->cpu0_L2C RFO          ACCESS:      58130 HIT:      11701 MISS:      46429 MSHR_MERGE:          0
cpu0->cpu0_L2C PREFETCH     ACCESS:          0 HIT:          0 MISS:          0 MSHR_MERGE:          0
cpu0->cpu0_L2C WRITE        ACCESS:     239988 HIT:     239448 MISS:        540 MSHR_MERGE:          0
cpu0->cpu0_L2C TRANSLATION  ACCESS:     268064 HIT:      64500 MISS:     203564 MSHR_MERGE:          0
cpu0->cpu0_L2C PREFETCH REQUESTED:          0 ISSUED:          0 USEFUL:          0 USELESS:          0
cpu0->cpu0_L2C AVERAGE MISS LATENCY: 154.4 cycles
cpu0->cpu0_L1I TOTAL        ACCESS:    3255424 HIT:    3237985 MISS:      17439 MSHR_MERGE:       3469
cpu0->cpu0_L1I LOAD         ACCESS:    3255424 HIT:    3237985 MISS:      17439 MSHR_MERGE:       3469
cpu0->cpu0_L1I RFO          ACCESS:          0 HIT:          0 MISS:          0 MSHR_MERGE:          0
cpu0->cpu0_L1I PREFETCH     ACCESS:          0 HIT:          0 MISS:          0 MSHR_MERGE:          0
cpu0->cpu0_L1I WRITE        ACCESS:          0 HIT:          0 MISS:          0 MSHR_MERGE:          0
cpu0->cpu0_L1I TRANSLATION  ACCESS:          0 HIT:          0 MISS:          0 MSHR_MERGE:          0
cpu0->cpu0_L1I PREFETCH REQUESTED:          0 ISSUED:          0 USEFUL:          0 USELESS:          0
cpu0->cpu0_L1I AVERAGE MISS LATENCY: 19.01 cycles
cpu0->cpu0_L1D TOTAL        ACCESS:   10330804 HIT:    9320067 MISS:    1010737 MSHR_MERGE:     246680
cpu0->cpu0_L1D LOAD         ACCESS:    5504513 HIT:    4940567 MISS:     563946 MSHR_MERGE:     126083
cpu0->cpu0_L1D RFO          ACCESS:          0 HIT:          0 MISS:          0 MSHR_MERGE:          0
cpu0->cpu0_L1D PREFETCH     ACCESS:          0 HIT:          0 MISS:          0 MSHR_MERGE:          0
cpu0->cpu0_L1D WRITE        ACCESS:    4536129 HIT:    4357851 MISS:     178278 MSHR_MERGE:     120148
cpu0->cpu0_L1D TRANSLATION  ACCESS:     290162 HIT:      21649 MISS:     268513 MSHR_MERGE:        449
cpu0->cpu0_L1D PREFETCH REQUESTED:          0 ISSUED:          0 USEFUL:          0 USELESS:          0
cpu0->cpu0_L1D AVERAGE MISS LATENCY: 123.8 cycles
cpu0->cpu0_ITLB TOTAL        ACCESS:    2881959 HIT:    2812182 MISS:      69777 MSHR_MERGE:      29569
cpu0->cpu0_ITLB LOAD         ACCESS:    2881959 HIT:    2812182 MISS:      69777 MSHR_MERGE:      29569
cpu0->cpu0_ITLB RFO          ACCESS:          0 HIT:          0 MISS:          0 MSHR_MERGE:          0
cpu0->cpu0_ITLB PREFETCH     ACCESS:          0 HIT:          0 MISS:          0 MSHR_MERGE:          0
cpu0->cpu0_ITLB WRITE        ACCESS:          0 HIT:          0 MISS:          0 MSHR_MERGE:          0
cpu0->cpu0_ITLB TRANSLATION  ACCESS:          0 HIT:          0 MISS:          0 MSHR_MERGE:          0
cpu0->cpu0_ITLB PREFETCH REQUESTED:          0 ISSUED:          0 USEFUL:          0 USELESS:          0
cpu0->cpu0_ITLB AVERAGE MISS LATENCY: 7.414 cycles
cpu0->cpu0_DTLB TOTAL        ACCESS:    9568564 HIT:    8950890 MISS:     617674 MSHR_MERGE:      95026
cpu0->cpu0_DTLB LOAD         ACCESS:    9568564 HIT:    8950890 MISS:     617674 MSHR_MERGE:      95026
cpu0->cpu0_DTLB RFO          ACCESS:          0 HIT:          0 MISS:          0 MSHR_MERGE:          0
cpu0->cpu0_DTLB PREFETCH     ACCESS:          0 HIT:          0 MISS:          0 MSHR_MERGE:          0
cpu0->cpu0_DTLB WRITE        ACCESS:          0 HIT:          0 MISS:          0 MSHR_MERGE:          0
cpu0->cpu0_DTLB TRANSLATION  ACCESS:          0 HIT:          0 MISS:          0 MSHR_MERGE:          0
cpu0->cpu0_DTLB PREFETCH REQUESTED:          0 ISSUED:          0 USEFUL:          0 USELESS:          0
cpu0->cpu0_DTLB AVERAGE MISS LATENCY: 88.12 cycles
cpu0->LLC TOTAL        ACCESS:     750598 HIT:     330086 MISS:     420512 MSHR_MERGE:          0
cpu0->LLC LOAD         ACCESS:     319550 HIT:      71248 MISS:     248302 MSHR_MERGE:          0
cpu0->LLC RFO          ACCESS:      46429 HIT:      17102 MISS:      29327 MSHR_MERGE:          0
cpu0->LLC PREFETCH     ACCESS:          0 HIT:          0 MISS:          0 MSHR_MERGE:          0
cpu0->LLC WRITE        ACCESS:     181055 HIT:     180354 MISS:        701 MSHR_MERGE:          0
cpu0->LLC TRANSLATION  ACCESS:     203564 HIT:      61382 MISS:     142182 MSHR_MERGE:          0
cpu0->LLC PREFETCH REQUESTED:          0 ISSUED:          0 USEFUL:          0 USELESS:          0
cpu0->LLC AVERAGE MISS LATENCY: 188.1 cycles

DRAM Statistics

Channel 0 RQ ROW_BUFFER_HIT:       1487
  ROW_BUFFER_MISS:     418317
  AVG DBUS CONGESTED CYCLE: 20.32
Channel 0 WQ ROW_BUFFER_HIT:      40876
  ROW_BUFFER_MISS:      91420
  FULL:          0
Channel 0 REFRESHES ISSUED:       8133
