[VMEM] WARNING: physical memory size is smaller than virtual memory size.

*** ChampSim Multicore Out-of-Order Simulator ***
Warmup Instructions: 5000000
Simulation Instructions: 25000000
Number of CPUs: 1
Page size: 4096

Off-chip DRAM Size: 16 GiB Channels: 1 Width: 64-bit Data Rate: 3205 MT/s
Warmup finished CPU 0 instructions: 5000004 cycles: 1255151 cumulative IPC: 3.984 (Simulation time: 00 hr 00 min 18 sec)
Warmup complete CPU 0 instructions: 5000004 cycles: 1255151 cumulative IPC: 3.984 (Simulation time: 00 hr 00 min 18 sec)
Heartbeat CPU 0 instructions: 10000002 cycles: 5460753 heartbeat IPC: 1.831 cumulative IPC: 1.189 (Simulation time: 00 hr 00 min 45 sec)
Heartbeat CPU 0 instructions: 20000002 cycles: 13760640 heartbeat IPC: 1.205 cumulative IPC: 1.199 (Simulation time: 00 hr 01 min 39 sec)
Heartbeat CPU 0 instructions: 30000002 cycles: 22107198 heartbeat IPC: 1.198 cumulative IPC: 1.199 (Simulation time: 00 hr 02 min 35 sec)
Simulation finished CPU 0 instructions: 25000000 cycles: 20852053 cumulative IPC: 1.199 (Simulation time: 00 hr 02 min 35 sec)
Simulation complete CPU 0 instructions: 25000000 cycles: 20852053 cumulative IPC: 1.199 (Simulation time: 00 hr 02 min 35 sec)

ChampSim completed all CPUs

=== Simulation ===
CPU 0 runs /Users/aleksandrkozlov/Projects/microarch/hw2/traces/621.wrf_s-575B.champsimtrace.xz

Region of Interest Statistics

CPU 0 cumulative IPC: 1.199 instructions: 25000000 cycles: 20852053
CPU 0 Branch Prediction Accuracy: 94.28% MPKI: 7.643 Average ROB Occupancy at Mispredict: 80.65
Branch type MPKI
BRANCH_DIRECT_JUMP: 0.00064
BRANCH_INDIRECT: 0
BRANCH_CONDITIONAL: 7.619
BRANCH_DIRECT_CALL: 0.00312
BRANCH_INDIRECT_CALL: 0
BRANCH_RETURN: 0.02012

cpu0->cpu0_STLB TOTAL        ACCESS:        959 HIT:        875 MISS:         84 MSHR_MERGE:          0
cpu0->cpu0_STLB LOAD         ACCESS:        959 HIT:        875 MISS:         84 MSHR_MERGE:          0
cpu0->cpu0_STLB RFO          ACCESS:          0 HIT:          0 MISS:          0 MSHR_MERGE:          0
cpu0->cpu0_STLB PREFETCH     ACCESS:          0 HIT:          0 MISS:          0 MSHR_MERGE:          0
cpu0->cpu0_STLB WRITE        ACCESS:          0 HIT:          0 MISS:          0 MSHR_MERGE:          0
cpu0->cpu0_STLB TRANSLATION  ACCESS:          0 HIT:          0 MISS:          0 MSHR_MERGE:          0
cpu0->cpu0_STLB PREFETCH REQUESTED:          0 ISSUED:          0 USEFUL:          0 USELESS:          0
cpu0->cpu0_STLB AVERAGE MISS LATENCY: 877 cycles
cpu0->cpu0_L2C TOTAL        ACCESS:       1790 HIT:        420 MISS:       1370 MSHR_MERGE:          0
cpu0->cpu0_L2C LOAD         ACCESS:        830 HIT:        163 MISS:        667 MSHR_MERGE:          0
cpu0->cpu0_L2C RFO          ACCESS:        555 HIT:         13 MISS:        542 MSHR_MERGE:          0
cpu0->cpu0_L2C PREFETCH     ACCESS:          0 HIT:          0 MISS:          0 MSHR_MERGE:          0
cpu0->cpu0_L2C WRITE        ACCESS:        241 HIT:        241 MISS:          0 MSHR_MERGE:          0
cpu0->cpu0_L2C TRANSLATION  ACCESS:        164 HIT:          3 MISS:        161 MSHR_MERGE:          0
cpu0->cpu0_L2C PREFETCH REQUESTED:          0 ISSUED:          0 USEFUL:          0 USELESS:          0
cpu0->cpu0_L2C AVERAGE MISS LATENCY: 196.8 cycles
cpu0->cpu0_L1I TOTAL        ACCESS:     585296 HIT:     584741 MISS:        555 MSHR_MERGE:        149
cpu0->cpu0_L1I LOAD         ACCESS:     585296 HIT:     584741 MISS:        555 MSHR_MERGE:        149
cpu0->cpu0_L1I RFO          ACCESS:          0 HIT:          0 MISS:          0 MSHR_MERGE:          0
cpu0->cpu0_L1I PREFETCH     ACCESS:          0 HIT:          0 MISS:          0 MSHR_MERGE:          0
cpu0->cpu0_L1I WRITE        ACCESS:          0 HIT:          0 MISS:          0 MSHR_MERGE:          0
cpu0->cpu0_L1I TRANSLATION  ACCESS:          0 HIT:          0 MISS:          0 MSHR_MERGE:          0
cpu0->cpu0_L1I PREFETCH REQUESTED:          0 ISSUED:          0 USEFUL:          0 USELESS:          0
cpu0->cpu0_L1I AVERAGE MISS LATENCY: 135.6 cycles
cpu0->cpu0_L1D TOTAL        ACCESS:    4630426 HIT:    4627992 MISS:       2434 MSHR_MERGE:       1291
cpu0->cpu0_L1D LOAD         ACCESS:    3656873 HIT:    3655978 MISS:        895 MSHR_MERGE:        471
cpu0->cpu0_L1D RFO          ACCESS:          0 HIT:          0 MISS:          0 MSHR_MERGE:          0
cpu0->cpu0_L1D PREFETCH     ACCESS:          0 HIT:          0 MISS:          0 MSHR_MERGE:          0
cpu0->cpu0_L1D WRITE        ACCESS:     973371 HIT:     972001 MISS:       1370 MSHR_MERGE:        815
cpu0->cpu0_L1D TRANSLATION  ACCESS:        182 HIT:         13 MISS:        169 MSHR_MERGE:          5
cpu0->cpu0_L1D PREFETCH REQUESTED:          0 ISSUED:          0 USEFUL:          0 USELESS:          0
cpu0->cpu0_L1D AVERAGE MISS LATENCY: 199.4 cycles
cpu0->cpu0_ITLB TOTAL        ACCESS:     482945 HIT:     482915 MISS:         30 MSHR_MERGE:         19
cpu0->cpu0_ITLB LOAD         ACCESS:     482945 HIT:     482915 MISS:         30 MSHR_MERGE:         19
cpu0->cpu0_ITLB RFO          ACCESS:          0 HIT:          0 MISS:          0 MSHR_MERGE:          0
cpu0->cpu0_ITLB PREFETCH     ACCESS:          0 HIT:          0 MISS:          0 MSHR_MERGE:          0
cpu0->cpu0_ITLB WRITE        ACCESS:          0 HIT:          0 MISS:          0 MSHR_MERGE:          0
cpu0->cpu0_ITLB TRANSLATION  ACCESS:          0 HIT:          0 MISS:          0 MSHR_MERGE:          0
cpu0->cpu0_ITLB PREFETCH REQUESTED:          0 ISSUED:          0 USEFUL:          0 USELESS:          0
cpu0->cpu0_ITLB AVERAGE MISS LATENCY: 771 cycles
cpu0->cpu0_DTLB TOTAL        ACCESS:    4551536 HIT:    4550172 MISS:       1364 MSHR_MERGE:        416
cpu0->cpu0_DTLB LOAD         ACCESS:    4551536 HIT:    4550172 MISS:       1364 MSHR_MERGE:        416
cpu0->cpu0_DTLB RFO          ACCESS:          0 HIT:          0 MISS:          0 MSHR_MERGE:          0
cpu0->cpu0_DTLB PREFETCH     ACCESS:          0 HIT:          0 MISS:          0 MSHR_MERGE:          0
cpu0->cpu0_DTLB WRITE        ACCESS:          0 HIT:          0 MISS:          0 MSHR_MERGE:          0
cpu0->cpu0_DTLB TRANSLATION  ACCESS:          0 HIT:          0 MISS:          0 MSHR_MERGE:          0
cpu0->cpu0_DTLB PREFETCH REQUESTED:          0 ISSUED:          0 USEFUL:          0 USELESS:          0
cpu0->cpu0_DTLB AVERAGE MISS LATENCY: 73.91 cycles
cpu0->LLC TOTAL        ACCESS:       1370 HIT:          0 MISS:       1370 MSHR_MERGE:          0
cpu0->LLC LOAD         ACCESS:        667 HIT:          0 MISS:        667 MSHR_MERGE:          0
cpu0->LLC RFO          ACCESS:        542 HIT:          0 MISS:        542 MSHR_MERGE:          0
cpu0->LLC PREFETCH     ACCESS:          0 HIT:          0 MISS:          0 MSHR_MERGE:          0
cpu0->LLC WRITE        ACCESS:          0 HIT:          0 MISS:          0 MSHR_MERGE:          0
cpu0->LLC TRANSLATION  ACCESS:        161 HIT:          0 MISS:        161 MSHR_MERGE:          0
cpu0->LLC PREFETCH REQUESTED:          0 ISSUED:          0 USEFUL:          0 USELESS:          0
cpu0->LLC AVERAGE MISS LATENCY: 180.8 cycles

DRAM Statistics

Channel 0 RQ ROW_BUFFER_HIT:          1
  ROW_BUFFER_MISS:       1369
  AVG DBUS CONGESTED CYCLE: 2.831
Channel 0 WQ ROW_BUFFER_HIT:          0
  ROW_BUFFER_MISS:          0
  FULL:          0
Channel 0 REFRESHES ISSUED:       1738
