[VMEM] WARNING: physical memory size is smaller than virtual memory size.

*** ChampSim Multicore Out-of-Order Simulator ***
Warmup Instructions: 5000000
Simulation Instructions: 25000000
Number of CPUs: 1
Page size: 4096

Off-chip DRAM Size: 16 GiB Channels: 1 Width: 64-bit Data Rate: 3205 MT/s
Warmup finished CPU 0 instructions: 5000002 cycles: 1277111 cumulative IPC: 3.915 (Simulation time: 00 hr 00 min 15 sec)
Warmup complete CPU 0 instructions: 5000002 cycles: 1277111 cumulative IPC: 3.915 (Simulation time: 00 hr 00 min 15 sec)
Heartbeat CPU 0 instructions: 10000004 cycles: 3239398 heartbeat IPC: 3.087 cumulative IPC: 2.548 (Simulation time: 00 hr 00 min 35 sec)
Heartbeat CPU 0 instructions: 20000006 cycles: 6836791 heartbeat IPC: 2.78 cumulative IPC: 2.698 (Simulation time: 00 hr 01 min 15 sec)
Simulation finished CPU 0 instructions: 25000000 cycles: 9147194 cumulative IPC: 2.733 (Simulation time: 00 hr 01 min 59 sec)
Simulation complete CPU 0 instructions: 25000000 cycles: 9147194 cumulative IPC: 2.733 (Simulation time: 00 hr 01 min 59 sec)

ChampSim completed all CPUs

=== Simulation ===
CPU 0 runs /Users/aleksandrkozlov/Projects/microarch/hw2/traces/625.x264_s-12B.champsimtrace.xz

Region of Interest Statistics

CPU 0 cumulative IPC: 2.733 instructions: 25000000 cycles: 9147194
CPU 0 Branch Prediction Accuracy: 95.82% MPKI: 1.622 Average ROB Occupancy at Mispredict: 176.6
Branch type MPKI
BRANCH_DIRECT_JUMP: 0.00068
BRANCH_INDIRECT: 0.00016
BRANCH_CONDITIONAL: 1.615
BRANCH_DIRECT_CALL: 0.00028
BRANCH_INDIRECT_CALL: 0.0046
BRANCH_RETURN: 0.00116

cpu0->cpu0_STLB TOTAL        ACCESS:       2970 HIT:       2836 MISS:        134 MSHR_MERGE:          0
cpu0->cpu0_STLB LOAD         ACCESS:       2970 HIT:       2836 MISS:        134 MSHR_MERGE:          0
cpu0->cpu0_STLB RFO          ACCESS:          0 HIT:          0 MISS:          0 MSHR_MERGE:          0
cpu0->cpu0_STLB PREFETCH     ACCESS:          0 HIT:          0 MISS:          0 MSHR_MERGE:          0
cpu0->cpu0_STLB WRITE        ACCESS:          0 HIT:          0 MISS:          0 MSHR_MERGE:          0
cpu0->cpu0_STLB TRANSLATION  ACCESS:          0 HIT:          0 MISS:          0 MSHR_MERGE:          0
cpu0->cpu0_STLB PREFETCH REQUESTED:          0 ISSUED:          0 USEFUL:          0 USELESS:          0
cpu0->cpu0_STLB AVERAGE MISS LATENCY: 719.1 cycles
cpu0->cpu0_L2C TOTAL        ACCESS:      11998 HIT:       4509 MISS:       7489 MSHR_MERGE:          0
cpu0->cpu0_L2C LOAD         ACCESS:      11349 HIT:       4316 MISS:       7033 MSHR_MERGE:          0
cpu0->cpu0_L2C RFO          ACCESS:        244 HIT:          2 MISS:        242 MSHR_MERGE:          0
cpu0->cpu0_L2C PREFETCH     ACCESS:          0 HIT:          0 MISS:          0 MSHR_MERGE:          0
cpu0->cpu0_L2C WRITE        ACCESS:        188 HIT:        187 MISS:          1 MSHR_MERGE:          0
cpu0->cpu0_L2C TRANSLATION  ACCESS:        217 HIT:          4 MISS:        213 MSHR_MERGE:          0
cpu0->cpu0_L2C PREFETCH REQUESTED:          0 ISSUED:          0 USEFUL:          0 USELESS:          0
cpu0->cpu0_L2C AVERAGE MISS LATENCY: 148.1 cycles
cpu0->cpu0_L1I TOTAL        ACCESS:    2762167 HIT:    2761945 MISS:        222 MSHR_MERGE:         63
cpu0->cpu0_L1I LOAD         ACCESS:    2762167 HIT:    2761945 MISS:        222 MSHR_MERGE:         63
cpu0->cpu0_L1I RFO          ACCESS:          0 HIT:          0 MISS:          0 MSHR_MERGE:          0
cpu0->cpu0_L1I PREFETCH     ACCESS:          0 HIT:          0 MISS:          0 MSHR_MERGE:          0
cpu0->cpu0_L1I WRITE        ACCESS:          0 HIT:          0 MISS:          0 MSHR_MERGE:          0
cpu0->cpu0_L1I TRANSLATION  ACCESS:          0 HIT:          0 MISS:          0 MSHR_MERGE:          0
cpu0->cpu0_L1I PREFETCH REQUESTED:          0 ISSUED:          0 USEFUL:          0 USELESS:          0
cpu0->cpu0_L1I AVERAGE MISS LATENCY: 208.5 cycles
cpu0->cpu0_L1D TOTAL        ACCESS:    4895635 HIT:    4859318 MISS:      36317 MSHR_MERGE:      24666
cpu0->cpu0_L1D LOAD         ACCESS:    3372884 HIT:    3337209 MISS:      35675 MSHR_MERGE:      24485
cpu0->cpu0_L1D RFO          ACCESS:          0 HIT:          0 MISS:          0 MSHR_MERGE:          0
cpu0->cpu0_L1D PREFETCH     ACCESS:          0 HIT:          0 MISS:          0 MSHR_MERGE:          0
cpu0->cpu0_L1D WRITE        ACCESS:    1522483 HIT:    1522058 MISS:        425 MSHR_MERGE:        181
cpu0->cpu0_L1D TRANSLATION  ACCESS:        268 HIT:         51 MISS:        217 MSHR_MERGE:          0
cpu0->cpu0_L1D PREFETCH REQUESTED:          0 ISSUED:          0 USEFUL:          0 USELESS:          0
cpu0->cpu0_L1D AVERAGE MISS LATENCY: 101.1 cycles
cpu0->cpu0_ITLB TOTAL        ACCESS:    2480968 HIT:    2480931 MISS:         37 MSHR_MERGE:         27
cpu0->cpu0_ITLB LOAD         ACCESS:    2480968 HIT:    2480931 MISS:         37 MSHR_MERGE:         27
cpu0->cpu0_ITLB RFO          ACCESS:          0 HIT:          0 MISS:          0 MSHR_MERGE:          0
cpu0->cpu0_ITLB PREFETCH     ACCESS:          0 HIT:          0 MISS:          0 MSHR_MERGE:          0
cpu0->cpu0_ITLB WRITE        ACCESS:          0 HIT:          0 MISS:          0 MSHR_MERGE:          0
cpu0->cpu0_ITLB TRANSLATION  ACCESS:          0 HIT:          0 MISS:          0 MSHR_MERGE:          0
cpu0->cpu0_ITLB PREFETCH REQUESTED:          0 ISSUED:          0 USEFUL:          0 USELESS:          0
cpu0->cpu0_ITLB AVERAGE MISS LATENCY: 731.4 cycles
cpu0->cpu0_DTLB TOTAL        ACCESS:    4594892 HIT:    4590217 MISS:       4675 MSHR_MERGE:       1715
cpu0->cpu0_DTLB LOAD         ACCESS:    4594892 HIT:    4590217 MISS:       4675 MSHR_MERGE:       1715
cpu0->cpu0_DTLB RFO          ACCESS:          0 HIT:          0 MISS:          0 MSHR_MERGE:          0
cpu0->cpu0_DTLB PREFETCH     ACCESS:          0 HIT:          0 MISS:          0 MSHR_MERGE:          0
cpu0->cpu0_DTLB WRITE        ACCESS:          0 HIT:          0 MISS:          0 MSHR_MERGE:          0
cpu0->cpu0_DTLB TRANSLATION  ACCESS:          0 HIT:          0 MISS:          0 MSHR_MERGE:          0
cpu0->cpu0_DTLB PREFETCH REQUESTED:          0 ISSUED:          0 USEFUL:          0 USELESS:          0
cpu0->cpu0_DTLB AVERAGE MISS LATENCY: 35.15 cycles
cpu0->LLC TOTAL        ACCESS:       7501 HIT:       1330 MISS:       6171 MSHR_MERGE:          0
cpu0->LLC LOAD         ACCESS:       7033 HIT:       1317 MISS:       5716 MSHR_MERGE:          0
cpu0->LLC RFO          ACCESS:        242 HIT:          0 MISS:        242 MSHR_MERGE:          0
cpu0->LLC PREFETCH     ACCESS:          0 HIT:          0 MISS:          0 MSHR_MERGE:          0
cpu0->LLC WRITE        ACCESS:         13 HIT:         13 MISS:          0 MSHR_MERGE:          0
cpu0->LLC TRANSLATION  ACCESS:        213 HIT:          0 MISS:        213 MSHR_MERGE:          0
cpu0->LLC PREFETCH REQUESTED:          0 ISSUED:          0 USEFUL:          0 USELESS:          0
cpu0->LLC AVERAGE MISS LATENCY: 160.5 cycles

DRAM Statistics

Channel 0 RQ ROW_BUFFER_HIT:        180
  ROW_BUFFER_MISS:       5991
  AVG DBUS CONGESTED CYCLE: 2.784
Channel 0 WQ ROW_BUFFER_HIT:          0
  ROW_BUFFER_MISS:          0
  FULL:          0
Channel 0 REFRESHES ISSUED:        762
