[VMEM] WARNING: physical memory size is smaller than virtual memory size.

*** ChampSim Multicore Out-of-Order Simulator ***
Warmup Instructions: 5000000
Simulation Instructions: 25000000
Number of CPUs: 1
Page size: 4096

Off-chip DRAM Size: 16 GiB Channels: 1 Width: 64-bit Data Rate: 3205 MT/s
Warmup finished CPU 0 instructions: 5000000 cycles: 1482116 cumulative IPC: 3.374 (Simulation time: 00 hr 00 min 17 sec)
Warmup complete CPU 0 instructions: 5000000 cycles: 1482116 cumulative IPC: 3.374 (Simulation time: 00 hr 00 min 17 sec)
Heartbeat CPU 0 instructions: 10000000 cycles: 6284962 heartbeat IPC: 1.591 cumulative IPC: 1.041 (Simulation time: 00 hr 00 min 55 sec)
Heartbeat CPU 0 instructions: 20000000 cycles: 13486416 heartbeat IPC: 1.389 cumulative IPC: 1.25 (Simulation time: 00 hr 02 min 03 sec)
Heartbeat CPU 0 instructions: 30000002 cycles: 23289007 heartbeat IPC: 1.02 cumulative IPC: 1.146 (Simulation time: 00 hr 03 min 18 sec)
Simulation finished CPU 0 instructions: 25000002 cycles: 21806891 cumulative IPC: 1.146 (Simulation time: 00 hr 03 min 18 sec)
Simulation complete CPU 0 instructions: 25000002 cycles: 21806891 cumulative IPC: 1.146 (Simulation time: 00 hr 03 min 18 sec)

ChampSim completed all CPUs

=== Simulation ===
CPU 0 runs /Users/aleksandrkozlov/Projects/microarch/hw2/traces/627.cam4_s-490B.champsimtrace.xz

Region of Interest Statistics

CPU 0 cumulative IPC: 1.146 instructions: 25000002 cycles: 21806891
CPU 0 Branch Prediction Accuracy: 94.5% MPKI: 5.244 Average ROB Occupancy at Mispredict: 65.72
Branch type MPKI
BRANCH_DIRECT_JUMP: 0.00488
BRANCH_INDIRECT: 0
BRANCH_CONDITIONAL: 5.239
BRANCH_DIRECT_CALL: 0.00032
BRANCH_INDIRECT_CALL: 0
BRANCH_RETURN: 0.00044

cpu0->cpu0_STLB TOTAL        ACCESS:       8022 HIT:       7371 MISS:        651 MSHR_MERGE:          0
cpu0->cpu0_STLB LOAD         ACCESS:       8022 HIT:       7371 MISS:        651 MSHR_MERGE:          0
cpu0->cpu0_STLB RFO          ACCESS:          0 HIT:          0 MISS:          0 MSHR_MERGE:          0
cpu0->cpu0_STLB PREFETCH     ACCESS:          0 HIT:          0 MISS:          0 MSHR_MERGE:          0
cpu0->cpu0_STLB WRITE        ACCESS:          0 HIT:          0 MISS:          0 MSHR_MERGE:          0
cpu0->cpu0_STLB TRANSLATION  ACCESS:          0 HIT:          0 MISS:          0 MSHR_MERGE:          0
cpu0->cpu0_STLB PREFETCH REQUESTED:          0 ISSUED:          0 USEFUL:          0 USELESS:          0
cpu0->cpu0_STLB AVERAGE MISS LATENCY: 712.8 cycles
cpu0->cpu0_L2C TOTAL        ACCESS:     667944 HIT:     356691 MISS:     311253 MSHR_MERGE:          0
cpu0->cpu0_L2C LOAD         ACCESS:     330476 HIT:     151462 MISS:     179014 MSHR_MERGE:          0
cpu0->cpu0_L2C RFO          ACCESS:     136470 HIT:       5473 MISS:     130997 MSHR_MERGE:          0
cpu0->cpu0_L2C PREFETCH     ACCESS:          0 HIT:          0 MISS:          0 MSHR_MERGE:          0
cpu0->cpu0_L2C WRITE        ACCESS:     200177 HIT:     199752 MISS:        425 MSHR_MERGE:          0
cpu0->cpu0_L2C TRANSLATION  ACCESS:        821 HIT:          4 MISS:        817 MSHR_MERGE:          0
cpu0->cpu0_L2C PREFETCH REQUESTED:          0 ISSUED:          0 USEFUL:          0 USELESS:          0
cpu0->cpu0_L2C AVERAGE MISS LATENCY: 126.7 cycles
cpu0->cpu0_L1I TOTAL        ACCESS:    1706852 HIT:    1705929 MISS:        923 MSHR_MERGE:        386
cpu0->cpu0_L1I LOAD         ACCESS:    1706852 HIT:    1705929 MISS:        923 MSHR_MERGE:        386
cpu0->cpu0_L1I RFO          ACCESS:          0 HIT:          0 MISS:          0 MSHR_MERGE:          0
cpu0->cpu0_L1I PREFETCH     ACCESS:          0 HIT:          0 MISS:          0 MSHR_MERGE:          0
cpu0->cpu0_L1I WRITE        ACCESS:          0 HIT:          0 MISS:          0 MSHR_MERGE:          0
cpu0->cpu0_L1I TRANSLATION  ACCESS:          0 HIT:          0 MISS:          0 MSHR_MERGE:          0
cpu0->cpu0_L1I PREFETCH REQUESTED:          0 ISSUED:          0 USEFUL:          0 USELESS:          0
cpu0->cpu0_L1I AVERAGE MISS LATENCY: 243.1 cycles
cpu0->cpu0_L1D TOTAL        ACCESS:    4976667 HIT:    3590433 MISS:    1386234 MSHR_MERGE:     919003
cpu0->cpu0_L1D LOAD         ACCESS:    3318468 HIT:    2604776 MISS:     713692 MSHR_MERGE:     383752
cpu0->cpu0_L1D RFO          ACCESS:          0 HIT:          0 MISS:          0 MSHR_MERGE:          0
cpu0->cpu0_L1D PREFETCH     ACCESS:          0 HIT:          0 MISS:          0 MSHR_MERGE:          0
cpu0->cpu0_L1D WRITE        ACCESS:    1656885 HIT:     985166 MISS:     671719 MSHR_MERGE:     535249
cpu0->cpu0_L1D TRANSLATION  ACCESS:       1314 HIT:        491 MISS:        823 MSHR_MERGE:          2
cpu0->cpu0_L1D PREFETCH REQUESTED:          0 ISSUED:          0 USEFUL:          0 USELESS:          0
cpu0->cpu0_L1D AVERAGE MISS LATENCY: 92.84 cycles
cpu0->cpu0_ITLB TOTAL        ACCESS:    1528835 HIT:    1528825 MISS:         10 MSHR_MERGE:          4
cpu0->cpu0_ITLB LOAD         ACCESS:    1528835 HIT:    1528825 MISS:         10 MSHR_MERGE:          4
cpu0->cpu0_ITLB RFO          ACCESS:          0 HIT:          0 MISS:          0 MSHR_MERGE:          0
cpu0->cpu0_ITLB PREFETCH     ACCESS:          0 HIT:          0 MISS:          0 MSHR_MERGE:          0
cpu0->cpu0_ITLB WRITE        ACCESS:          0 HIT:          0 MISS:          0 MSHR_MERGE:          0
cpu0->cpu0_ITLB TRANSLATION  ACCESS:          0 HIT:          0 MISS:          0 MSHR_MERGE:          0
cpu0->cpu0_ITLB PREFETCH REQUESTED:          0 ISSUED:          0 USEFUL:          0 USELESS:          0
cpu0->cpu0_ITLB AVERAGE MISS LATENCY: 848.3 cycles
cpu0->cpu0_DTLB TOTAL        ACCESS:    4826976 HIT:    4811423 MISS:      15553 MSHR_MERGE:       7537
cpu0->cpu0_DTLB LOAD         ACCESS:    4826976 HIT:    4811423 MISS:      15553 MSHR_MERGE:       7537
cpu0->cpu0_DTLB RFO          ACCESS:          0 HIT:          0 MISS:          0 MSHR_MERGE:          0
cpu0->cpu0_DTLB PREFETCH     ACCESS:          0 HIT:          0 MISS:          0 MSHR_MERGE:          0
cpu0->cpu0_DTLB WRITE        ACCESS:          0 HIT:          0 MISS:          0 MSHR_MERGE:          0
cpu0->cpu0_DTLB TRANSLATION  ACCESS:          0 HIT:          0 MISS:          0 MSHR_MERGE:          0
cpu0->cpu0_DTLB PREFETCH REQUESTED:          0 ISSUED:          0 USEFUL:          0 USELESS:          0
cpu0->cpu0_DTLB AVERAGE MISS LATENCY: 62.34 cycles
cpu0->LLC TOTAL        ACCESS:     477325 HIT:     353480 MISS:     123845 MSHR_MERGE:          0
cpu0->LLC LOAD         ACCESS:     179014 HIT:     128020 MISS:      50994 MSHR_MERGE:          0
cpu0->LLC RFO          ACCESS:     130997 HIT:      58967 MISS:      72030 MSHR_MERGE:          0
cpu0->LLC PREFETCH     ACCESS:          0 HIT:          0 MISS:          0 MSHR_MERGE:          0
cpu0->LLC WRITE        ACCESS:     166497 HIT:     166490 MISS:          7 MSHR_MERGE:          0
cpu0->LLC TRANSLATION  ACCESS:        817 HIT:          3 MISS:        814 MSHR_MERGE:          0
cpu0->LLC PREFETCH REQUESTED:          0 ISSUED:          0 USEFUL:          0 USELESS:          0
cpu0->LLC AVERAGE MISS LATENCY: 279.6 cycles

DRAM Statistics

Channel 0 RQ ROW_BUFFER_HIT:       6894
  ROW_BUFFER_MISS:     116791
  AVG DBUS CONGESTED CYCLE: 9.617
Channel 0 WQ ROW_BUFFER_HIT:      21509
  ROW_BUFFER_MISS:      70514
  FULL:          0
Channel 0 REFRESHES ISSUED:       1817
