[VMEM] WARNING: physical memory size is smaller than virtual memory size.

*** ChampSim Multicore Out-of-Order Simulator ***
Warmup Instructions: 5000000
Simulation Instructions: 25000000
Number of CPUs: 1
Page size: 4096

Off-chip DRAM Size: 16 GiB Channels: 1 Width: 64-bit Data Rate: 3205 MT/s
Warmup finished CPU 0 instructions: 5000001 cycles: 1465610 cumulative IPC: 3.412 (Simulation time: 00 hr 00 min 20 sec)
Warmup complete CPU 0 instructions: 5000001 cycles: 1465610 cumulative IPC: 3.412 (Simulation time: 00 hr 00 min 20 sec)
Heartbeat CPU 0 instructions: 10000002 cycles: 5515661 heartbeat IPC: 1.813 cumulative IPC: 1.235 (Simulation time: 00 hr 00 min 51 sec)
Heartbeat CPU 0 instructions: 20000003 cycles: 13697787 heartbeat IPC: 1.222 cumulative IPC: 1.226 (Simulation time: 00 hr 01 min 53 sec)
Heartbeat CPU 0 instructions: 30000004 cycles: 21860647 heartbeat IPC: 1.225 cumulative IPC: 1.226 (Simulation time: 00 hr 02 min 56 sec)
Simulation finished CPU 0 instructions: 25000003 cycles: 20395037 cumulative IPC: 1.226 (Simulation time: 00 hr 02 min 56 sec)
Simulation complete CPU 0 instructions: 25000003 cycles: 20395037 cumulative IPC: 1.226 (Simulation time: 00 hr 02 min 56 sec)

ChampSim completed all CPUs

=== Simulation ===
CPU 0 runs /Users/aleksandrkozlov/Projects/microarch/hw2/traces/628.pop2_s-17B.champsimtrace.xz

Region of Interest Statistics

CPU 0 cumulative IPC: 1.226 instructions: 25000003 cycles: 20395037
CPU 0 Branch Prediction Accuracy: 96.74% MPKI: 3.725 Average ROB Occupancy at Mispredict: 96.46
Branch type MPKI
BRANCH_DIRECT_JUMP: 0.05124
BRANCH_INDIRECT: 0.0016
BRANCH_CONDITIONAL: 3.672
BRANCH_DIRECT_CALL: 0
BRANCH_INDIRECT_CALL: 0
BRANCH_RETURN: 0

cpu0->cpu0_STLB TOTAL        ACCESS:      22003 HIT:      20773 MISS:       1230 MSHR_MERGE:          0
cpu0->cpu0_STLB LOAD         ACCESS:      22003 HIT:      20773 MISS:       1230 MSHR_MERGE:          0
cpu0->cpu0_STLB RFO          ACCESS:          0 HIT:          0 MISS:          0 MSHR_MERGE:          0
cpu0->cpu0_STLB PREFETCH     ACCESS:          0 HIT:          0 MISS:          0 MSHR_MERGE:          0
cpu0->cpu0_STLB WRITE        ACCESS:          0 HIT:          0 MISS:          0 MSHR_MERGE:          0
cpu0->cpu0_STLB TRANSLATION  ACCESS:          0 HIT:          0 MISS:          0 MSHR_MERGE:          0
cpu0->cpu0_STLB PREFETCH REQUESTED:          0 ISSUED:          0 USEFUL:          0 USELESS:          0
cpu0->cpu0_STLB AVERAGE MISS LATENCY: 746.3 cycles
cpu0->cpu0_L2C TOTAL        ACCESS:     753592 HIT:     523405 MISS:     230187 MSHR_MERGE:          0
cpu0->cpu0_L2C LOAD         ACCESS:     410861 HIT:     236067 MISS:     174794 MSHR_MERGE:          0
cpu0->cpu0_L2C RFO          ACCESS:     136330 HIT:      83444 MISS:      52886 MSHR_MERGE:          0
cpu0->cpu0_L2C PREFETCH     ACCESS:          0 HIT:          0 MISS:          0 MSHR_MERGE:          0
cpu0->cpu0_L2C WRITE        ACCESS:     203802 HIT:     203777 MISS:         25 MSHR_MERGE:          0
cpu0->cpu0_L2C TRANSLATION  ACCESS:       2599 HIT:        117 MISS:       2482 MSHR_MERGE:          0
cpu0->cpu0_L2C PREFETCH REQUESTED:          0 ISSUED:          0 USEFUL:          0 USELESS:          0
cpu0->cpu0_L2C AVERAGE MISS LATENCY: 79.19 cycles
cpu0->cpu0_L1I TOTAL        ACCESS:    1827849 HIT:    1773528 MISS:      54321 MSHR_MERGE:      24760
cpu0->cpu0_L1I LOAD         ACCESS:    1827849 HIT:    1773528 MISS:      54321 MSHR_MERGE:      24760
cpu0->cpu0_L1I RFO          ACCESS:          0 HIT:          0 MISS:          0 MSHR_MERGE:          0
cpu0->cpu0_L1I PREFETCH     ACCESS:          0 HIT:          0 MISS:          0 MSHR_MERGE:          0
cpu0->cpu0_L1I WRITE        ACCESS:          0 HIT:          0 MISS:          0 MSHR_MERGE:          0
cpu0->cpu0_L1I TRANSLATION  ACCESS:          0 HIT:          0 MISS:          0 MSHR_MERGE:          0
cpu0->cpu0_L1I PREFETCH REQUESTED:          0 ISSUED:          0 USEFUL:          0 USELESS:          0
cpu0->cpu0_L1I AVERAGE MISS LATENCY: 22.5 cycles
cpu0->cpu0_L1D TOTAL        ACCESS:    6541739 HIT:    5372130 MISS:    1169609 MSHR_MERGE:     649375
cpu0->cpu0_L1D LOAD         ACCESS:    4646628 HIT:    3928476 MISS:     718152 MSHR_MERGE:     336849
cpu0->cpu0_L1D RFO          ACCESS:          0 HIT:          0 MISS:          0 MSHR_MERGE:          0
cpu0->cpu0_L1D PREFETCH     ACCESS:          0 HIT:          0 MISS:          0 MSHR_MERGE:          0
cpu0->cpu0_L1D WRITE        ACCESS:    1892249 HIT:    1443456 MISS:     448793 MSHR_MERGE:     312461
cpu0->cpu0_L1D TRANSLATION  ACCESS:       2862 HIT:        198 MISS:       2664 MSHR_MERGE:         65
cpu0->cpu0_L1D PREFETCH REQUESTED:          0 ISSUED:          0 USEFUL:          0 USELESS:          0
cpu0->cpu0_L1D AVERAGE MISS LATENCY: 42.66 cycles
cpu0->cpu0_ITLB TOTAL        ACCESS:    1484972 HIT:    1482123 MISS:       2849 MSHR_MERGE:       1610
cpu0->cpu0_ITLB LOAD         ACCESS:    1484972 HIT:    1482123 MISS:       2849 MSHR_MERGE:       1610
cpu0->cpu0_ITLB RFO          ACCESS:          0 HIT:          0 MISS:          0 MSHR_MERGE:          0
cpu0->cpu0_ITLB PREFETCH     ACCESS:          0 HIT:          0 MISS:          0 MSHR_MERGE:          0
cpu0->cpu0_ITLB WRITE        ACCESS:          0 HIT:          0 MISS:          0 MSHR_MERGE:          0
cpu0->cpu0_ITLB TRANSLATION  ACCESS:          0 HIT:          0 MISS:          0 MSHR_MERGE:          0
cpu0->cpu0_ITLB PREFETCH REQUESTED:          0 ISSUED:          0 USEFUL:          0 USELESS:          0
cpu0->cpu0_ITLB AVERAGE MISS LATENCY: 5.002 cycles
cpu0->cpu0_DTLB TOTAL        ACCESS:    6300363 HIT:    6266428 MISS:      33935 MSHR_MERGE:      13171
cpu0->cpu0_DTLB LOAD         ACCESS:    6300363 HIT:    6266428 MISS:      33935 MSHR_MERGE:      13171
cpu0->cpu0_DTLB RFO          ACCESS:          0 HIT:          0 MISS:          0 MSHR_MERGE:          0
cpu0->cpu0_DTLB PREFETCH     ACCESS:          0 HIT:          0 MISS:          0 MSHR_MERGE:          0
cpu0->cpu0_DTLB WRITE        ACCESS:          0 HIT:          0 MISS:          0 MSHR_MERGE:          0
cpu0->cpu0_DTLB TRANSLATION  ACCESS:          0 HIT:          0 MISS:          0 MSHR_MERGE:          0
cpu0->cpu0_DTLB PREFETCH REQUESTED:          0 ISSUED:          0 USEFUL:          0 USELESS:          0
cpu0->cpu0_DTLB AVERAGE MISS LATENCY: 49.27 cycles
cpu0->LLC TOTAL        ACCESS:     318727 HIT:     240781 MISS:      77946 MSHR_MERGE:          0
cpu0->LLC LOAD         ACCESS:     174794 HIT:     104864 MISS:      69930 MSHR_MERGE:          0
cpu0->LLC RFO          ACCESS:      52886 HIT:      47269 MISS:       5617 MSHR_MERGE:          0
cpu0->LLC PREFETCH     ACCESS:          0 HIT:          0 MISS:          0 MSHR_MERGE:          0
cpu0->LLC WRITE        ACCESS:      88565 HIT:      87934 MISS:        631 MSHR_MERGE:          0
cpu0->LLC TRANSLATION  ACCESS:       2482 HIT:        714 MISS:       1768 MSHR_MERGE:          0
cpu0->LLC PREFETCH REQUESTED:          0 ISSUED:          0 USEFUL:          0 USELESS:          0
cpu0->LLC AVERAGE MISS LATENCY: 188.6 cycles

DRAM Statistics

Channel 0 RQ ROW_BUFFER_HIT:       2216
  ROW_BUFFER_MISS:      75098
  AVG DBUS CONGESTED CYCLE: 15.79
Channel 0 WQ ROW_BUFFER_HIT:       5529
  ROW_BUFFER_MISS:      14252
  FULL:          0
Channel 0 REFRESHES ISSUED:       1699
