[VMEM] WARNING: physical memory size is smaller than virtual memory size.

*** ChampSim Multicore Out-of-Order Simulator ***
Warmup Instructions: 5000000
Simulation Instructions: 25000000
Number of CPUs: 1
Page size: 4096

Off-chip DRAM Size: 16 GiB Channels: 1 Width: 64-bit Data Rate: 3205 MT/s
Warmup finished CPU 0 instructions: 5000002 cycles: 1766146 cumulative IPC: 2.831 (Simulation time: 00 hr 00 min 23 sec)
Warmup complete CPU 0 instructions: 5000002 cycles: 1766146 cumulative IPC: 2.831 (Simulation time: 00 hr 00 min 23 sec)
Heartbeat CPU 0 instructions: 10000002 cycles: 6528054 heartbeat IPC: 1.532 cumulative IPC: 1.05 (Simulation time: 00 hr 00 min 55 sec)
Heartbeat CPU 0 instructions: 20000002 cycles: 16181153 heartbeat IPC: 1.036 cumulative IPC: 1.041 (Simulation time: 00 hr 01 min 59 sec)
Heartbeat CPU 0 instructions: 30000005 cycles: 25589966 heartbeat IPC: 1.063 cumulative IPC: 1.049 (Simulation time: 00 hr 03 min 06 sec)
Simulation finished CPU 0 instructions: 25000003 cycles: 23823820 cumulative IPC: 1.049 (Simulation time: 00 hr 03 min 06 sec)
Simulation complete CPU 0 instructions: 25000003 cycles: 23823820 cumulative IPC: 1.049 (Simulation time: 00 hr 03 min 06 sec)

ChampSim completed all CPUs

=== Simulation ===
CPU 0 runs /Users/aleksandrkozlov/Projects/microarch/hw2/traces/631.deepsjeng_s-928B.champsimtrace.xz

Region of Interest Statistics

CPU 0 cumulative IPC: 1.049 instructions: 25000003 cycles: 23823820
CPU 0 Branch Prediction Accuracy: 89.33% MPKI: 15.98 Average ROB Occupancy at Mispredict: 27.76
Branch type MPKI
BRANCH_DIRECT_JUMP: 0.02156
BRANCH_INDIRECT: 0.00908
BRANCH_CONDITIONAL: 15.49
BRANCH_DIRECT_CALL: 0.02132
BRANCH_INDIRECT_CALL: 0
BRANCH_RETURN: 0.432

cpu0->cpu0_STLB TOTAL        ACCESS:       6387 HIT:       2007 MISS:       4380 MSHR_MERGE:          0
cpu0->cpu0_STLB LOAD         ACCESS:       6387 HIT:       2007 MISS:       4380 MSHR_MERGE:          0
cpu0->cpu0_STLB RFO          ACCESS:          0 HIT:          0 MISS:          0 MSHR_MERGE:          0
cpu0->cpu0_STLB PREFETCH     ACCESS:          0 HIT:          0 MISS:          0 MSHR_MERGE:          0
cpu0->cpu0_STLB WRITE        ACCESS:          0 HIT:          0 MISS:          0 MSHR_MERGE:          0
cpu0->cpu0_STLB TRANSLATION  ACCESS:          0 HIT:          0 MISS:          0 MSHR_MERGE:          0
cpu0->cpu0_STLB PREFETCH REQUESTED:          0 ISSUED:          0 USEFUL:          0 USELESS:          0
cpu0->cpu0_STLB AVERAGE MISS LATENCY: 931.4 cycles
cpu0->cpu0_L2C TOTAL        ACCESS:      71048 HIT:      51597 MISS:      19451 MSHR_MERGE:          0
cpu0->cpu0_L2C LOAD         ACCESS:      36457 HIT:      28992 MISS:       7465 MSHR_MERGE:          0
cpu0->cpu0_L2C RFO          ACCESS:       7735 HIT:       6986 MISS:        749 MSHR_MERGE:          0
cpu0->cpu0_L2C PREFETCH     ACCESS:          0 HIT:          0 MISS:          0 MSHR_MERGE:          0
cpu0->cpu0_L2C WRITE        ACCESS:      14026 HIT:      13994 MISS:         32 MSHR_MERGE:          0
cpu0->cpu0_L2C TRANSLATION  ACCESS:      12830 HIT:       1625 MISS:      11205 MSHR_MERGE:          0
cpu0->cpu0_L2C PREFETCH REQUESTED:          0 ISSUED:          0 USEFUL:          0 USELESS:          0
cpu0->cpu0_L2C AVERAGE MISS LATENCY: 161.1 cycles
cpu0->cpu0_L1I TOTAL        ACCESS:    2968062 HIT:    2941651 MISS:      26411 MSHR_MERGE:       5002
cpu0->cpu0_L1I LOAD         ACCESS:    2968062 HIT:    2941651 MISS:      26411 MSHR_MERGE:       5002
cpu0->cpu0_L1I RFO          ACCESS:          0 HIT:          0 MISS:          0 MSHR_MERGE:          0
cpu0->cpu0_L1I PREFETCH     ACCESS:          0 HIT:          0 MISS:          0 MSHR_MERGE:          0
cpu0->cpu0_L1I WRITE        ACCESS:          0 HIT:          0 MISS:          0 MSHR_MERGE:          0
cpu0->cpu0_L1I TRANSLATION  ACCESS:          0 HIT:          0 MISS:          0 MSHR_MERGE:          0
cpu0->cpu0_L1I PREFETCH REQUESTED:          0 ISSUED:          0 USEFUL:          0 USELESS:          0
cpu0->cpu0_L1I AVERAGE MISS LATENCY: 7.223 cycles
cpu0->cpu0_L1D TOTAL        ACCESS:    7668278 HIT:    7613851 MISS:      54427 MSHR_MERGE:      18810
cpu0->cpu0_L1D LOAD         ACCESS:    4620116 HIT:    4598719 MISS:      21397 MSHR_MERGE:       6345
cpu0->cpu0_L1D RFO          ACCESS:          0 HIT:          0 MISS:          0 MSHR_MERGE:          0
cpu0->cpu0_L1D PREFETCH     ACCESS:          0 HIT:          0 MISS:          0 MSHR_MERGE:          0
cpu0->cpu0_L1D WRITE        ACCESS:    3034971 HIT:    3014804 MISS:      20167 MSHR_MERGE:      12432
cpu0->cpu0_L1D TRANSLATION  ACCESS:      13191 HIT:        328 MISS:      12863 MSHR_MERGE:         33
cpu0->cpu0_L1D PREFETCH REQUESTED:          0 ISSUED:          0 USEFUL:          0 USELESS:          0
cpu0->cpu0_L1D AVERAGE MISS LATENCY: 96.44 cycles
cpu0->cpu0_ITLB TOTAL        ACCESS:    2528403 HIT:    2528403 MISS:          0 MSHR_MERGE:          0
cpu0->cpu0_ITLB LOAD         ACCESS:    2528403 HIT:    2528403 MISS:          0 MSHR_MERGE:          0
cpu0->cpu0_ITLB RFO          ACCESS:          0 HIT:          0 MISS:          0 MSHR_MERGE:          0
cpu0->cpu0_ITLB PREFETCH     ACCESS:          0 HIT:          0 MISS:          0 MSHR_MERGE:          0
cpu0->cpu0_ITLB WRITE        ACCESS:          0 HIT:          0 MISS:          0 MSHR_MERGE:          0
cpu0->cpu0_ITLB TRANSLATION  ACCESS:          0 HIT:          0 MISS:          0 MSHR_MERGE:          0
cpu0->cpu0_ITLB PREFETCH REQUESTED:          0 ISSUED:          0 USEFUL:          0 USELESS:          0
cpu0->cpu0_ITLB AVERAGE MISS LATENCY: - cycles
cpu0->cpu0_DTLB TOTAL        ACCESS:    7194896 HIT:    7181429 MISS:      13467 MSHR_MERGE:       7080
cpu0->cpu0_DTLB LOAD         ACCESS:    7194896 HIT:    7181429 MISS:      13467 MSHR_MERGE:       7080
cpu0->cpu0_DTLB RFO          ACCESS:          0 HIT:          0 MISS:          0 MSHR_MERGE:          0
cpu0->cpu0_DTLB PREFETCH     ACCESS:          0 HIT:          0 MISS:          0 MSHR_MERGE:          0
cpu0->cpu0_DTLB WRITE        ACCESS:          0 HIT:          0 MISS:          0 MSHR_MERGE:          0
cpu0->cpu0_DTLB TRANSLATION  ACCESS:          0 HIT:          0 MISS:          0 MSHR_MERGE:          0
cpu0->cpu0_DTLB PREFETCH REQUESTED:          0 ISSUED:          0 USEFUL:          0 USELESS:          0
cpu0->cpu0_DTLB AVERAGE MISS LATENCY: 644.4 cycles
cpu0->LLC TOTAL        ACCESS:      24169 HIT:       6608 MISS:      17561 MSHR_MERGE:          0
cpu0->LLC LOAD         ACCESS:       7465 HIT:        494 MISS:       6971 MSHR_MERGE:          0
cpu0->LLC RFO          ACCESS:        749 HIT:        297 MISS:        452 MSHR_MERGE:          0
cpu0->LLC PREFETCH     ACCESS:          0 HIT:          0 MISS:          0 MSHR_MERGE:          0
cpu0->LLC WRITE        ACCESS:       4750 HIT:       4747 MISS:          3 MSHR_MERGE:          0
cpu0->LLC TRANSLATION  ACCESS:      11205 HIT:       1070 MISS:      10135 MSHR_MERGE:          0
cpu0->LLC PREFETCH REQUESTED:          0 ISSUED:          0 USEFUL:          0 USELESS:          0
cpu0->LLC AVERAGE MISS LATENCY: 160.9 cycles

DRAM Statistics

Channel 0 RQ ROW_BUFFER_HIT:         18
  ROW_BUFFER_MISS:      17540
  AVG DBUS CONGESTED CYCLE: 3.12
Channel 0 WQ ROW_BUFFER_HIT:          0
  ROW_BUFFER_MISS:        101
  FULL:          0
Channel 0 REFRESHES ISSUED:       1985
