[VMEM] WARNING: physical memory size is smaller than virtual memory size.

*** ChampSim Multicore Out-of-Order Simulator ***
Warmup Instructions: 5000000
Simulation Instructions: 25000000
Number of CPUs: 1
Page size: 4096

Off-chip DRAM Size: 16 GiB Channels: 1 Width: 64-bit Data Rate: 3205 MT/s
Warmup finished CPU 0 instructions: 5000001 cycles: 1343812 cumulative IPC: 3.721 (Simulation time: 00 hr 00 min 21 sec)
Warmup complete CPU 0 instructions: 5000001 cycles: 1343812 cumulative IPC: 3.721 (Simulation time: 00 hr 00 min 21 sec)
Heartbeat CPU 0 instructions: 10000000 cycles: 6287837 heartbeat IPC: 1.59 cumulative IPC: 1.011 (Simulation time: 00 hr 00 min 53 sec)
Heartbeat CPU 0 instructions: 20000003 cycles: 20489238 heartbeat IPC: 0.7042 cumulative IPC: 0.7835 (Simulation time: 00 hr 02 min 17 sec)
Simulation finished CPU 0 instructions: 25000000 cycles: 29204925 cumulative IPC: 0.856 (Simulation time: 00 hr 03 min 08 sec)
Simulation complete CPU 0 instructions: 25000000 cycles: 29204925 cumulative IPC: 0.856 (Simulation time: 00 hr 03 min 08 sec)

ChampSim completed all CPUs

=== Simulation ===
CPU 0 runs /Users/aleksandrkozlov/Projects/microarch/hw2/traces/641.leela_s-149B.champsimtrace.xz

Region of Interest Statistics

CPU 0 cumulative IPC: 0.856 instructions: 25000000 cycles: 29204925
CPU 0 Branch Prediction Accuracy: 88.79% MPKI: 19.38 Average ROB Occupancy at Mispredict: 20.23
Branch type MPKI
BRANCH_DIRECT_JUMP: 0.1037
BRANCH_INDIRECT: 0.02064
BRANCH_CONDITIONAL: 19.19
BRANCH_DIRECT_CALL: 0.01192
BRANCH_INDIRECT_CALL: 0.0072
BRANCH_RETURN: 0.03844

cpu0->cpu0_STLB TOTAL        ACCESS:      12555 HIT:      12077 MISS:        478 MSHR_MERGE:          0
cpu0->cpu0_STLB LOAD         ACCESS:      12555 HIT:      12077 MISS:        478 MSHR_MERGE:          0
cpu0->cpu0_STLB RFO          ACCESS:          0 HIT:          0 MISS:          0 MSHR_MERGE:          0
cpu0->cpu0_STLB PREFETCH     ACCESS:          0 HIT:          0 MISS:          0 MSHR_MERGE:          0
cpu0->cpu0_STLB WRITE        ACCESS:          0 HIT:          0 MISS:          0 MSHR_MERGE:          0
cpu0->cpu0_STLB TRANSLATION  ACCESS:          0 HIT:          0 MISS:          0 MSHR_MERGE:          0
cpu0->cpu0_STLB PREFETCH REQUESTED:          0 ISSUED:          0 USEFUL:          0 USELESS:          0
cpu0->cpu0_STLB AVERAGE MISS LATENCY: 730.7 cycles
cpu0->cpu0_L2C TOTAL        ACCESS:     292594 HIT:     201916 MISS:      90678 MSHR_MERGE:          0
cpu0->cpu0_L2C LOAD         ACCESS:     124432 HIT:      66757 MISS:      57675 MSHR_MERGE:          0
cpu0->cpu0_L2C RFO          ACCESS:      63828 HIT:      31615 MISS:      32213 MSHR_MERGE:          0
cpu0->cpu0_L2C PREFETCH     ACCESS:          0 HIT:          0 MISS:          0 MSHR_MERGE:          0
cpu0->cpu0_L2C WRITE        ACCESS:     103583 HIT:     103541 MISS:         42 MSHR_MERGE:          0
cpu0->cpu0_L2C TRANSLATION  ACCESS:        751 HIT:          3 MISS:        748 MSHR_MERGE:          0
cpu0->cpu0_L2C PREFETCH REQUESTED:          0 ISSUED:          0 USEFUL:          0 USELESS:          0
cpu0->cpu0_L2C AVERAGE MISS LATENCY: 66.36 cycles
cpu0->cpu0_L1I TOTAL        ACCESS:    2988779 HIT:    2978352 MISS:      10427 MSHR_MERGE:       3123
cpu0->cpu0_L1I LOAD         ACCESS:    2988779 HIT:    2978352 MISS:      10427 MSHR_MERGE:       3123
cpu0->cpu0_L1I RFO          ACCESS:          0 HIT:          0 MISS:          0 MSHR_MERGE:          0
cpu0->cpu0_L1I PREFETCH     ACCESS:          0 HIT:          0 MISS:          0 MSHR_MERGE:          0
cpu0->cpu0_L1I WRITE        ACCESS:          0 HIT:          0 MISS:          0 MSHR_MERGE:          0
cpu0->cpu0_L1I TRANSLATION  ACCESS:          0 HIT:          0 MISS:          0 MSHR_MERGE:          0
cpu0->cpu0_L1I PREFETCH REQUESTED:          0 ISSUED:          0 USEFUL:          0 USELESS:          0
cpu0->cpu0_L1I AVERAGE MISS LATENCY: 29.67 cycles
cpu0->cpu0_L1D TOTAL        ACCESS:    8283668 HIT:    7850431 MISS:     433237 MSHR_MERGE:     251530
cpu0->cpu0_L1D LOAD         ACCESS:    4707095 HIT:    4527230 MISS:     179865 MSHR_MERGE:      62737
cpu0->cpu0_L1D RFO          ACCESS:          0 HIT:          0 MISS:          0 MSHR_MERGE:          0
cpu0->cpu0_L1D PREFETCH     ACCESS:          0 HIT:          0 MISS:          0 MSHR_MERGE:          0
cpu0->cpu0_L1D WRITE        ACCESS:    3575616 HIT:    3322995 MISS:     252621 MSHR_MERGE:     188793
cpu0->cpu0_L1D TRANSLATION  ACCESS:        957 HIT:        206 MISS:        751 MSHR_MERGE:          0
cpu0->cpu0_L1D PREFETCH REQUESTED:          0 ISSUED:          0 USEFUL:          0 USELESS:          0
cpu0->cpu0_L1D AVERAGE MISS LATENCY: 40.78 cycles
cpu0->cpu0_ITLB TOTAL        ACCESS:    2726707 HIT:    2726098 MISS:        609 MSHR_MERGE:        323
cpu0->cpu0_ITLB LOAD         ACCESS:    2726707 HIT:    2726098 MISS:        609 MSHR_MERGE:        323
cpu0->cpu0_ITLB RFO          ACCESS:          0 HIT:          0 MISS:          0 MSHR_MERGE:          0
cpu0->cpu0_ITLB PREFETCH     ACCESS:          0 HIT:          0 MISS:          0 MSHR_MERGE:          0
cpu0->cpu0_ITLB WRITE        ACCESS:          0 HIT:          0 MISS:          0 MSHR_MERGE:          0
cpu0->cpu0_ITLB TRANSLATION  ACCESS:          0 HIT:          0 MISS:          0 MSHR_MERGE:          0
cpu0->cpu0_ITLB PREFETCH REQUESTED:          0 ISSUED:          0 USEFUL:          0 USELESS:          0
cpu0->cpu0_ITLB AVERAGE MISS LATENCY: 124.3 cycles
cpu0->cpu0_DTLB TOTAL        ACCESS:    7863840 HIT:    7846277 MISS:      17563 MSHR_MERGE:       5294
cpu0->cpu0_DTLB LOAD         ACCESS:    7863840 HIT:    7846277 MISS:      17563 MSHR_MERGE:       5294
cpu0->cpu0_DTLB RFO          ACCESS:          0 HIT:          0 MISS:          0 MSHR_MERGE:          0
cpu0->cpu0_DTLB PREFETCH     ACCESS:          0 HIT:          0 MISS:          0 MSHR_MERGE:          0
cpu0->cpu0_DTLB WRITE        ACCESS:          0 HIT:          0 MISS:          0 MSHR_MERGE:          0
cpu0->cpu0_DTLB TRANSLATION  ACCESS:          0 HIT:          0 MISS:          0 MSHR_MERGE:          0
cpu0->cpu0_DTLB PREFETCH REQUESTED:          0 ISSUED:          0 USEFUL:          0 USELESS:          0
cpu0->cpu0_DTLB AVERAGE MISS LATENCY: 30.73 cycles
cpu0->LLC TOTAL        ACCESS:     147568 HIT:     120330 MISS:      27238 MSHR_MERGE:          0
cpu0->LLC LOAD         ACCESS:      57675 HIT:      39147 MISS:      18528 MSHR_MERGE:          0
cpu0->LLC RFO          ACCESS:      32213 HIT:      24249 MISS:       7964 MSHR_MERGE:          0
cpu0->LLC PREFETCH     ACCESS:          0 HIT:          0 MISS:          0 MSHR_MERGE:          0
cpu0->LLC WRITE        ACCESS:      56932 HIT:      56928 MISS:          4 MSHR_MERGE:          0
cpu0->LLC TRANSLATION  ACCESS:        748 HIT:          6 MISS:        742 MSHR_MERGE:          0
cpu0->LLC PREFETCH REQUESTED:          0 ISSUED:          0 USEFUL:          0 USELESS:          0
cpu0->LLC AVERAGE MISS LATENCY: 170 cycles

DRAM Statistics

Channel 0 RQ ROW_BUFFER_HIT:       2776
  ROW_BUFFER_MISS:      24454
  AVG DBUS CONGESTED CYCLE: 16.22
Channel 0 WQ ROW_BUFFER_HIT:        285
  ROW_BUFFER_MISS:       1155
  FULL:          0
Channel 0 REFRESHES ISSUED:       2434
