[VMEM] WARNING: physical memory size is smaller than virtual memory size.

*** ChampSim Multicore Out-of-Order Simulator ***
Warmup Instructions: 5000000
Simulation Instructions: 25000000
Number of CPUs: 1
Page size: 4096

Off-chip DRAM Size: 16 GiB Channels: 1 Width: 64-bit Data Rate: 3205 MT/s
Warmup finished CPU 0 instructions: 5000002 cycles: 1300141 cumulative IPC: 3.846 (Simulation time: 00 hr 00 min 18 sec)
Warmup complete CPU 0 instructions: 5000002 cycles: 1300141 cumulative IPC: 3.846 (Simulation time: 00 hr 00 min 18 sec)
Heartbeat CPU 0 instructions: 10000001 cycles: 4043907 heartbeat IPC: 2.473 cumulative IPC: 1.822 (Simulation time: 00 hr 00 min 40 sec)
Heartbeat CPU 0 instructions: 20000001 cycles: 9666003 heartbeat IPC: 1.779 cumulative IPC: 1.793 (Simulation time: 00 hr 01 min 23 sec)
Heartbeat CPU 0 instructions: 30000001 cycles: 15282073 heartbeat IPC: 1.781 cumulative IPC: 1.788 (Simulation time: 00 hr 02 min 02 sec)
Simulation finished CPU 0 instructions: 25000002 cycles: 13981933 cumulative IPC: 1.788 (Simulation time: 00 hr 02 min 02 sec)
Simulation complete CPU 0 instructions: 25000002 cycles: 13981933 cumulative IPC: 1.788 (Simulation time: 00 hr 02 min 02 sec)

ChampSim completed all CPUs

=== Simulation ===
CPU 0 runs /Users/aleksandrkozlov/Projects/microarch/hw2/traces/644.nab_s-12459B.champsimtrace.xz

Region of Interest Statistics

CPU 0 cumulative IPC: 1.788 instructions: 25000002 cycles: 13981933
CPU 0 Branch Prediction Accuracy: 95.26% MPKI: 6.806 Average ROB Occupancy at Mispredict: 77.69
Branch type MPKI
BRANCH_DIRECT_JUMP: 0.2805
BRANCH_INDIRECT: 0
BRANCH_CONDITIONAL: 6.526
BRANCH_DIRECT_CALL: 0
BRANCH_INDIRECT_CALL: 0
BRANCH_RETURN: 0

cpu0->cpu0_STLB TOTAL        ACCESS:       5231 HIT:       5151 MISS:         80 MSHR_MERGE:          0
cpu0->cpu0_STLB LOAD         ACCESS:       5231 HIT:       5151 MISS:         80 MSHR_MERGE:          0
cpu0->cpu0_STLB RFO          ACCESS:          0 HIT:          0 MISS:          0 MSHR_MERGE:          0
cpu0->cpu0_STLB PREFETCH     ACCESS:          0 HIT:          0 MISS:          0 MSHR_MERGE:          0
cpu0->cpu0_STLB WRITE        ACCESS:          0 HIT:          0 MISS:          0 MSHR_MERGE:          0
cpu0->cpu0_STLB TRANSLATION  ACCESS:          0 HIT:          0 MISS:          0 MSHR_MERGE:          0
cpu0->cpu0_STLB PREFETCH REQUESTED:          0 ISSUED:          0 USEFUL:          0 USELESS:          0
cpu0->cpu0_STLB AVERAGE MISS LATENCY: 706.7 cycles
cpu0->cpu0_L2C TOTAL        ACCESS:     160116 HIT:     136031 MISS:      24085 MSHR_MERGE:          0
cpu0->cpu0_L2C LOAD         ACCESS:     139523 HIT:     119432 MISS:      20091 MSHR_MERGE:          0
cpu0->cpu0_L2C RFO          ACCESS:       8282 HIT:       4418 MISS:       3864 MSHR_MERGE:          0
cpu0->cpu0_L2C PREFETCH     ACCESS:          0 HIT:          0 MISS:          0 MSHR_MERGE:          0
cpu0->cpu0_L2C WRITE        ACCESS:      12185 HIT:      12167 MISS:         18 MSHR_MERGE:          0
cpu0->cpu0_L2C TRANSLATION  ACCESS:        126 HIT:         14 MISS:        112 MSHR_MERGE:          0
cpu0->cpu0_L2C PREFETCH REQUESTED:          0 ISSUED:          0 USEFUL:          0 USELESS:          0
cpu0->cpu0_L2C AVERAGE MISS LATENCY: 50.53 cycles
cpu0->cpu0_L1I TOTAL        ACCESS:      94879 HIT:      94879 MISS:          0 MSHR_MERGE:          0
cpu0->cpu0_L1I LOAD         ACCESS:      94879 HIT:      94879 MISS:          0 MSHR_MERGE:          0
cpu0->cpu0_L1I RFO          ACCESS:          0 HIT:          0 MISS:          0 MSHR_MERGE:          0
cpu0->cpu0_L1I PREFETCH     ACCESS:          0 HIT:          0 MISS:          0 MSHR_MERGE:          0
cpu0->cpu0_L1I WRITE        ACCESS:          0 HIT:          0 MISS:          0 MSHR_MERGE:          0
cpu0->cpu0_L1I TRANSLATION  ACCESS:          0 HIT:          0 MISS:          0 MSHR_MERGE:          0
cpu0->cpu0_L1I PREFETCH REQUESTED:          0 ISSUED:          0 USEFUL:          0 USELESS:          0
cpu0->cpu0_L1I AVERAGE MISS LATENCY: - cycles
cpu0->cpu0_L1D TOTAL        ACCESS:    6524050 HIT:    6282223 MISS:     241827 MSHR_MERGE:      93896
cpu0->cpu0_L1D LOAD         ACCESS:    4061439 HIT:    3887655 MISS:     173784 MSHR_MERGE:      34261
cpu0->cpu0_L1D RFO          ACCESS:          0 HIT:          0 MISS:          0 MSHR_MERGE:          0
cpu0->cpu0_L1D PREFETCH     ACCESS:          0 HIT:          0 MISS:          0 MSHR_MERGE:          0
cpu0->cpu0_L1D WRITE        ACCESS:    2462451 HIT:    2394535 MISS:      67916 MSHR_MERGE:      59634
cpu0->cpu0_L1D TRANSLATION  ACCESS:        160 HIT:         33 MISS:        127 MSHR_MERGE:          1
cpu0->cpu0_L1D PREFETCH REQUESTED:          0 ISSUED:          0 USEFUL:          0 USELESS:          0
cpu0->cpu0_L1D AVERAGE MISS LATENCY: 16.4 cycles
cpu0->cpu0_ITLB TOTAL        ACCESS:      78593 HIT:      78593 MISS:          0 MSHR_MERGE:          0
cpu0->cpu0_ITLB LOAD         ACCESS:      78593 HIT:      78593 MISS:          0 MSHR_MERGE:          0
cpu0->cpu0_ITLB RFO          ACCESS:          0 HIT:          0 MISS:          0 MSHR_MERGE:          0
cpu0->cpu0_ITLB PREFETCH     ACCESS:          0 HIT:          0 MISS:          0 MSHR_MERGE:          0
cpu0->cpu0_ITLB WRITE        ACCESS:          0 HIT:          0 MISS:          0 MSHR_MERGE:          0
cpu0->cpu0_ITLB TRANSLATION  ACCESS:          0 HIT:          0 MISS:          0 MSHR_MERGE:          0
cpu0->cpu0_ITLB PREFETCH REQUESTED:          0 ISSUED:          0 USEFUL:          0 USELESS:          0
cpu0->cpu0_ITLB AVERAGE MISS LATENCY: - cycles
cpu0->cpu0_DTLB TOTAL        ACCESS:    6170225 HIT:    6163294 MISS:       6931 MSHR_MERGE:       1700
cpu0->cpu0_DTLB LOAD         ACCESS:    6170225 HIT:    6163294 MISS:       6931 MSHR_MERGE:       1700
cpu0->cpu0_DTLB RFO          ACCESS:          0 HIT:          0 MISS:          0 MSHR_MERGE:          0
cpu0->cpu0_DTLB PREFETCH     ACCESS:          0 HIT:          0 MISS:          0 MSHR_MERGE:          0
cpu0->cpu0_DTLB WRITE        ACCESS:          0 HIT:          0 MISS:          0 MSHR_MERGE:          0
cpu0->cpu0_DTLB TRANSLATION  ACCESS:          0 HIT:          0 MISS:          0 MSHR_MERGE:          0
cpu0->cpu0_DTLB PREFETCH REQUESTED:          0 ISSUED:          0 USEFUL:          0 USELESS:          0
cpu0->cpu0_DTLB AVERAGE MISS LATENCY: 15.82 cycles
cpu0->LLC TOTAL        ACCESS:      26799 HIT:      21409 MISS:       5390 MSHR_MERGE:          0
cpu0->LLC LOAD         ACCESS:      20091 HIT:      18642 MISS:       1449 MSHR_MERGE:          0
cpu0->LLC RFO          ACCESS:       3864 HIT:         31 MISS:       3833 MSHR_MERGE:          0
cpu0->LLC PREFETCH     ACCESS:          0 HIT:          0 MISS:          0 MSHR_MERGE:          0
cpu0->LLC WRITE        ACCESS:       2732 HIT:       2732 MISS:          0 MSHR_MERGE:          0
cpu0->LLC TRANSLATION  ACCESS:        112 HIT:          4 MISS:        108 MSHR_MERGE:          0
cpu0->LLC PREFETCH REQUESTED:          0 ISSUED:          0 USEFUL:          0 USELESS:          0
cpu0->LLC AVERAGE MISS LATENCY: 157.8 cycles

DRAM Statistics

Channel 0 RQ ROW_BUFFER_HIT:       1417
  ROW_BUFFER_MISS:       3973
  AVG DBUS CONGESTED CYCLE: 2.654
Channel 0 WQ ROW_BUFFER_HIT:          0
  ROW_BUFFER_MISS:          0
  FULL:          0
Channel 0 REFRESHES ISSUED:       1165
