[VMEM] WARNING: physical memory size is smaller than virtual memory size.

*** ChampSim Multicore Out-of-Order Simulator ***
Warmup Instructions: 5000000
Simulation Instructions: 25000000
Number of CPUs: 1
Page size: 4096

Off-chip DRAM Size: 16 GiB Channels: 1 Width: 64-bit Data Rate: 3205 MT/s
Warmup finished CPU 0 instructions: 5000000 cycles: 1263654 cumulative IPC: 3.957 (Simulation time: 00 hr 00 min 19 sec)
Warmup complete CPU 0 instructions: 5000000 cycles: 1263654 cumulative IPC: 3.957 (Simulation time: 00 hr 00 min 19 sec)
Heartbeat CPU 0 instructions: 10000003 cycles: 4197484 heartbeat IPC: 2.382 cumulative IPC: 1.704 (Simulation time: 00 hr 00 min 42 sec)
Heartbeat CPU 0 instructions: 20000006 cycles: 9889213 heartbeat IPC: 1.757 cumulative IPC: 1.739 (Simulation time: 00 hr 01 min 23 sec)
Simulation finished CPU 0 instructions: 25000000 cycles: 14054058 cumulative IPC: 1.779 (Simulation time: 00 hr 01 min 59 sec)
Simulation complete CPU 0 instructions: 25000000 cycles: 14054058 cumulative IPC: 1.779 (Simulation time: 00 hr 01 min 59 sec)

ChampSim completed all CPUs

=== Simulation ===
CPU 0 runs /Users/aleksandrkozlov/Projects/microarch/hw2/traces/648.exchange2_s-387B.champsimtrace.xz

Region of Interest Statistics

CPU 0 cumulative IPC: 1.779 instructions: 25000000 cycles: 14054058
CPU 0 Branch Prediction Accuracy: 93.74% MPKI: 10.23 Average ROB Occupancy at Mispredict: 40.18
Branch type MPKI
BRANCH_DIRECT_JUMP: 0.4544
BRANCH_INDIRECT: 0
BRANCH_CONDITIONAL: 9.77
BRANCH_DIRECT_CALL: 0.00332
BRANCH_INDIRECT_CALL: 0
BRANCH_RETURN: 0.00332

cpu0->cpu0_STLB TOTAL        ACCESS:         37 HIT:          0 MISS:         37 MSHR_MERGE:          0
cpu0->cpu0_STLB LOAD         ACCESS:         37 HIT:          0 MISS:         37 MSHR_MERGE:          0
cpu0->cpu0_STLB RFO          ACCESS:          0 HIT:          0 MISS:          0 MSHR_MERGE:          0
cpu0->cpu0_STLB PREFETCH     ACCESS:          0 HIT:          0 MISS:          0 MSHR_MERGE:          0
cpu0->cpu0_STLB WRITE        ACCESS:          0 HIT:          0 MISS:          0 MSHR_MERGE:          0
cpu0->cpu0_STLB TRANSLATION  ACCESS:          0 HIT:          0 MISS:          0 MSHR_MERGE:          0
cpu0->cpu0_STLB PREFETCH REQUESTED:          0 ISSUED:          0 USEFUL:          0 USELESS:          0
cpu0->cpu0_STLB AVERAGE MISS LATENCY: 753.4 cycles
cpu0->cpu0_L2C TOTAL        ACCESS:       9484 HIT:       8306 MISS:       1178 MSHR_MERGE:          0
cpu0->cpu0_L2C LOAD         ACCESS:       9311 HIT:       8290 MISS:       1021 MSHR_MERGE:          0
cpu0->cpu0_L2C RFO          ACCESS:        108 HIT:          8 MISS:        100 MSHR_MERGE:          0
cpu0->cpu0_L2C PREFETCH     ACCESS:          0 HIT:          0 MISS:          0 MSHR_MERGE:          0
cpu0->cpu0_L2C WRITE        ACCESS:          8 HIT:          8 MISS:          0 MSHR_MERGE:          0
cpu0->cpu0_L2C TRANSLATION  ACCESS:         57 HIT:          0 MISS:         57 MSHR_MERGE:          0
cpu0->cpu0_L2C PREFETCH REQUESTED:          0 ISSUED:          0 USEFUL:          0 USELESS:          0
cpu0->cpu0_L2C AVERAGE MISS LATENCY: 187.1 cycles
cpu0->cpu0_L1I TOTAL        ACCESS:    1107666 HIT:    1092376 MISS:      15290 MSHR_MERGE:       6020
cpu0->cpu0_L1I LOAD         ACCESS:    1107666 HIT:    1092376 MISS:      15290 MSHR_MERGE:       6020
cpu0->cpu0_L1I RFO          ACCESS:          0 HIT:          0 MISS:          0 MSHR_MERGE:          0
cpu0->cpu0_L1I PREFETCH     ACCESS:          0 HIT:          0 MISS:          0 MSHR_MERGE:          0
cpu0->cpu0_L1I WRITE        ACCESS:          0 HIT:          0 MISS:          0 MSHR_MERGE:          0
cpu0->cpu0_L1I TRANSLATION  ACCESS:          0 HIT:          0 MISS:          0 MSHR_MERGE:          0
cpu0->cpu0_L1I PREFETCH REQUESTED:          0 ISSUED:          0 USEFUL:          0 USELESS:          0
cpu0->cpu0_L1I AVERAGE MISS LATENCY: 26.69 cycles
cpu0->cpu0_L1D TOTAL        ACCESS:    6918564 HIT:    6917556 MISS:       1008 MSHR_MERGE:        802
cpu0->cpu0_L1D LOAD         ACCESS:    3738452 HIT:    3738359 MISS:         93 MSHR_MERGE:         52
cpu0->cpu0_L1D RFO          ACCESS:          0 HIT:          0 MISS:          0 MSHR_MERGE:          0
cpu0->cpu0_L1D PREFETCH     ACCESS:          0 HIT:          0 MISS:          0 MSHR_MERGE:          0
cpu0->cpu0_L1D WRITE        ACCESS:    3180037 HIT:    3179179 MISS:        858 MSHR_MERGE:        750
cpu0->cpu0_L1D TRANSLATION  ACCESS:         75 HIT:         18 MISS:         57 MSHR_MERGE:          0
cpu0->cpu0_L1D PREFETCH REQUESTED:          0 ISSUED:          0 USEFUL:          0 USELESS:          0
cpu0->cpu0_L1D AVERAGE MISS LATENCY: 198.8 cycles
cpu0->cpu0_ITLB TOTAL        ACCESS:     873064 HIT:     873007 MISS:         57 MSHR_MERGE:         33
cpu0->cpu0_ITLB LOAD         ACCESS:     873064 HIT:     873007 MISS:         57 MSHR_MERGE:         33
cpu0->cpu0_ITLB RFO          ACCESS:          0 HIT:          0 MISS:          0 MSHR_MERGE:          0
cpu0->cpu0_ITLB PREFETCH     ACCESS:          0 HIT:          0 MISS:          0 MSHR_MERGE:          0
cpu0->cpu0_ITLB WRITE        ACCESS:          0 HIT:          0 MISS:          0 MSHR_MERGE:          0
cpu0->cpu0_ITLB TRANSLATION  ACCESS:          0 HIT:          0 MISS:          0 MSHR_MERGE:          0
cpu0->cpu0_ITLB PREFETCH REQUESTED:          0 ISSUED:          0 USEFUL:          0 USELESS:          0
cpu0->cpu0_ITLB AVERAGE MISS LATENCY: 739.7 cycles
cpu0->cpu0_DTLB TOTAL        ACCESS:    6320300 HIT:    6320256 MISS:         44 MSHR_MERGE:         31
cpu0->cpu0_DTLB LOAD         ACCESS:    6320300 HIT:    6320256 MISS:         44 MSHR_MERGE:         31
cpu0->cpu0_DTLB RFO          ACCESS:          0 HIT:          0 MISS:          0 MSHR_MERGE:          0
cpu0->cpu0_DTLB PREFETCH     ACCESS:          0 HIT:          0 MISS:          0 MSHR_MERGE:          0
cpu0->cpu0_DTLB WRITE        ACCESS:          0 HIT:          0 MISS:          0 MSHR_MERGE:          0
cpu0->cpu0_DTLB TRANSLATION  ACCESS:          0 HIT:          0 MISS:          0 MSHR_MERGE:          0
cpu0->cpu0_DTLB PREFETCH REQUESTED:          0 ISSUED:          0 USEFUL:          0 USELESS:          0
cpu0->cpu0_DTLB AVERAGE MISS LATENCY: 795.9 cycles
cpu0->LLC TOTAL        ACCESS:       1178 HIT:          0 MISS:       1178 MSHR_MERGE:          0
cpu0->LLC LOAD         ACCESS:       1021 HIT:          0 MISS:       1021 MSHR_MERGE:          0
cpu0->LLC RFO          ACCESS:        100 HIT:          0 MISS:        100 MSHR_MERGE:          0
cpu0->LLC PREFETCH     ACCESS:          0 HIT:          0 MISS:          0 MSHR_MERGE:          0
cpu0->LLC WRITE        ACCESS:          0 HIT:          0 MISS:          0 MSHR_MERGE:          0
cpu0->LLC TRANSLATION  ACCESS:         57 HIT:          0 MISS:         57 MSHR_MERGE:          0
cpu0->LLC PREFETCH REQUESTED:          0 ISSUED:          0 USEFUL:          0 USELESS:          0
cpu0->LLC AVERAGE MISS LATENCY: 171.1 cycles

DRAM Statistics

Channel 0 RQ ROW_BUFFER_HIT:         41
  ROW_BUFFER_MISS:       1137
  AVG DBUS CONGESTED CYCLE: 2.951
Channel 0 WQ ROW_BUFFER_HIT:          0
  ROW_BUFFER_MISS:          0
  FULL:          0
Channel 0 REFRESHES ISSUED:       1171
