[VMEM] WARNING: physical memory size is smaller than virtual memory size.

*** ChampSim Multicore Out-of-Order Simulator ***
Warmup Instructions: 5000000
Simulation Instructions: 25000000
Number of CPUs: 1
Page size: 4096

Off-chip DRAM Size: 16 GiB Channels: 1 Width: 64-bit Data Rate: 3205 MT/s
Warmup finished CPU 0 instructions: 5000001 cycles: 1493800 cumulative IPC: 3.347 (Simulation time: 00 hr 00 min 19 sec)
Warmup complete CPU 0 instructions: 5000001 cycles: 1493800 cumulative IPC: 3.347 (Simulation time: 00 hr 00 min 19 sec)
Heartbeat CPU 0 instructions: 10000003 cycles: 14123918 heartbeat IPC: 0.708 cumulative IPC: 0.3959 (Simulation time: 00 hr 01 min 51 sec)
Heartbeat CPU 0 instructions: 20000007 cycles: 39504998 heartbeat IPC: 0.394 cumulative IPC: 0.3946 (Simulation time: 00 hr 04 min 29 sec)
Simulation finished CPU 0 instructions: 25000001 cycles: 63496769 cumulative IPC: 0.3937 (Simulation time: 00 hr 07 min 04 sec)
Simulation complete CPU 0 instructions: 25000001 cycles: 63496769 cumulative IPC: 0.3937 (Simulation time: 00 hr 07 min 04 sec)

ChampSim completed all CPUs

=== Simulation ===
CPU 0 runs /Users/aleksandrkozlov/Projects/microarch/hw2/traces/649.fotonik3d_s-1176B.champsimtrace.xz

Region of Interest Statistics

CPU 0 cumulative IPC: 0.3937 instructions: 25000001 cycles: 63496769
CPU 0 Branch Prediction Accuracy: 99.96% MPKI: 0.0066 Average ROB Occupancy at Mispredict: 247.3
Branch type MPKI
BRANCH_DIRECT_JUMP: 0
BRANCH_INDIRECT: 0
BRANCH_CONDITIONAL: 0.0066
BRANCH_DIRECT_CALL: 0
BRANCH_INDIRECT_CALL: 0
BRANCH_RETURN: 0

cpu0->cpu0_STLB TOTAL        ACCESS:       5815 HIT:       2377 MISS:       3438 MSHR_MERGE:          0
cpu0->cpu0_STLB LOAD         ACCESS:       5815 HIT:       2377 MISS:       3438 MSHR_MERGE:          0
cpu0->cpu0_STLB RFO          ACCESS:          0 HIT:          0 MISS:          0 MSHR_MERGE:          0
cpu0->cpu0_STLB PREFETCH     ACCESS:          0 HIT:          0 MISS:          0 MSHR_MERGE:          0
cpu0->cpu0_STLB WRITE        ACCESS:          0 HIT:          0 MISS:          0 MSHR_MERGE:          0
cpu0->cpu0_STLB TRANSLATION  ACCESS:          0 HIT:          0 MISS:          0 MSHR_MERGE:          0
cpu0->cpu0_STLB PREFETCH REQUESTED:          0 ISSUED:          0 USEFUL:          0 USELESS:          0
cpu0->cpu0_STLB AVERAGE MISS LATENCY: 663.8 cycles
cpu0->cpu0_L2C TOTAL        ACCESS:     554464 HIT:     310563 MISS:     243901 MSHR_MERGE:          0
cpu0->cpu0_L2C LOAD         ACCESS:     330466 HIT:      90515 MISS:     239951 MSHR_MERGE:          0
cpu0->cpu0_L2C RFO          ACCESS:        385 HIT:        328 MISS:         57 MSHR_MERGE:          0
cpu0->cpu0_L2C PREFETCH     ACCESS:          0 HIT:          0 MISS:          0 MSHR_MERGE:          0
cpu0->cpu0_L2C WRITE        ACCESS:     219626 HIT:     219626 MISS:          0 MSHR_MERGE:          0
cpu0->cpu0_L2C TRANSLATION  ACCESS:       3987 HIT:         94 MISS:       3893 MSHR_MERGE:          0
cpu0->cpu0_L2C PREFETCH REQUESTED:          0 ISSUED:          0 USEFUL:          0 USELESS:          0
cpu0->cpu0_L2C AVERAGE MISS LATENCY: 221.2 cycles
cpu0->cpu0_L1I TOTAL        ACCESS:    4437829 HIT:    4437829 MISS:          0 MSHR_MERGE:          0
cpu0->cpu0_L1I LOAD         ACCESS:    4437829 HIT:    4437829 MISS:          0 MSHR_MERGE:          0
cpu0->cpu0_L1I RFO          ACCESS:          0 HIT:          0 MISS:          0 MSHR_MERGE:          0
cpu0->cpu0_L1I PREFETCH     ACCESS:          0 HIT:          0 MISS:          0 MSHR_MERGE:          0
cpu0->cpu0_L1I WRITE        ACCESS:          0 HIT:          0 MISS:          0 MSHR_MERGE:          0
cpu0->cpu0_L1I TRANSLATION  ACCESS:          0 HIT:          0 MISS:          0 MSHR_MERGE:          0
cpu0->cpu0_L1I PREFETCH REQUESTED:          0 ISSUED:          0 USEFUL:          0 USELESS:          0
cpu0->cpu0_L1I AVERAGE MISS LATENCY: - cycles
cpu0->cpu0_L1D TOTAL        ACCESS:    7701926 HIT:    6430060 MISS:    1271866 MSHR_MERGE:     937028
cpu0->cpu0_L1D LOAD         ACCESS:    5939895 HIT:    4673224 MISS:    1266671 MSHR_MERGE:     936205
cpu0->cpu0_L1D RFO          ACCESS:          0 HIT:          0 MISS:          0 MSHR_MERGE:          0
cpu0->cpu0_L1D PREFETCH     ACCESS:          0 HIT:          0 MISS:          0 MSHR_MERGE:          0
cpu0->cpu0_L1D WRITE        ACCESS:    1755141 HIT:    1753933 MISS:       1208 MSHR_MERGE:        823
cpu0->cpu0_L1D TRANSLATION  ACCESS:       6890 HIT:       2903 MISS:       3987 MSHR_MERGE:          0
cpu0->cpu0_L1D PREFETCH REQUESTED:          0 ISSUED:          0 USEFUL:          0 USELESS:          0
cpu0->cpu0_L1D AVERAGE MISS LATENCY: 169.9 cycles
cpu0->cpu0_ITLB TOTAL        ACCESS:    3563157 HIT:    3563157 MISS:          0 MSHR_MERGE:          0
cpu0->cpu0_ITLB LOAD         ACCESS:    3563157 HIT:    3563157 MISS:          0 MSHR_MERGE:          0
cpu0->cpu0_ITLB RFO          ACCESS:          0 HIT:          0 MISS:          0 MSHR_MERGE:          0
cpu0->cpu0_ITLB PREFETCH     ACCESS:          0 HIT:          0 MISS:          0 MSHR_MERGE:          0
cpu0->cpu0_ITLB WRITE        ACCESS:          0 HIT:          0 MISS:          0 MSHR_MERGE:          0
cpu0->cpu0_ITLB TRANSLATION  ACCESS:          0 HIT:          0 MISS:          0 MSHR_MERGE:          0
cpu0->cpu0_ITLB PREFETCH REQUESTED:          0 ISSUED:          0 USEFUL:          0 USELESS:          0
cpu0->cpu0_ITLB AVERAGE MISS LATENCY: - cycles
cpu0->cpu0_DTLB TOTAL        ACCESS:    7084808 HIT:    7064985 MISS:      19823 MSHR_MERGE:      14008
cpu0->cpu0_DTLB LOAD         ACCESS:    7084808 HIT:    7064985 MISS:      19823 MSHR_MERGE:      14008
cpu0->cpu0_DTLB RFO          ACCESS:          0 HIT:          0 MISS:          0 MSHR_MERGE:          0
cpu0->cpu0_DTLB PREFETCH     ACCESS:          0 HIT:          0 MISS:          0 MSHR_MERGE:          0
cpu0->cpu0_DTLB WRITE        ACCESS:          0 HIT:          0 MISS:          0 MSHR_MERGE:          0
cpu0->cpu0_DTLB TRANSLATION  ACCESS:          0 HIT:          0 MISS:          0 MSHR_MERGE:          0
cpu0->cpu0_DTLB PREFETCH REQUESTED:          0 ISSUED:          0 USEFUL:          0 USELESS:          0
cpu0->cpu0_DTLB AVERAGE MISS LATENCY: 398.1 cycles
cpu0->LLC TOTAL        ACCESS:     463011 HIT:     236063 MISS:     226948 MSHR_MERGE:          0
cpu0->LLC LOAD         ACCESS:     239951 HIT:      16908 MISS:     223043 MSHR_MERGE:          0
cpu0->LLC RFO          ACCESS:         57 HIT:         57 MISS:          0 MSHR_MERGE:          0
cpu0->LLC PREFETCH     ACCESS:          0 HIT:          0 MISS:          0 MSHR_MERGE:          0
cpu0->LLC WRITE        ACCESS:     219110 HIT:     219096 MISS:         14 MSHR_MERGE:          0
cpu0->LLC TRANSLATION  ACCESS:       3893 HIT:          2 MISS:       3891 MSHR_MERGE:          0
cpu0->LLC PREFETCH REQUESTED:          0 ISSUED:          0 USEFUL:          0 USELESS:          0
cpu0->LLC AVERAGE MISS LATENCY: 220.6 cycles

DRAM Statistics

Channel 0 RQ ROW_BUFFER_HIT:       1448
  ROW_BUFFER_MISS:     225486
  AVG DBUS CONGESTED CYCLE: 9.817
Channel 0 WQ ROW_BUFFER_HIT:      89066
  ROW_BUFFER_MISS:     129552
  FULL:          0
Channel 0 REFRESHES ISSUED:       5291
