[VMEM] WARNING: physical memory size is smaller than virtual memory size.

*** ChampSim Multicore Out-of-Order Simulator ***
Warmup Instructions: 5000000
Simulation Instructions: 25000000
Number of CPUs: 1
Page size: 4096

Off-chip DRAM Size: 16 GiB Channels: 1 Width: 64-bit Data Rate: 3205 MT/s
Warmup finished CPU 0 instructions: 5000000 cycles: 1430204 cumulative IPC: 3.496 (Simulation time: 00 hr 00 min 19 sec)
Warmup complete CPU 0 instructions: 5000000 cycles: 1430204 cumulative IPC: 3.496 (Simulation time: 00 hr 00 min 19 sec)
Heartbeat CPU 0 instructions: 10000002 cycles: 3460185 heartbeat IPC: 2.89 cumulative IPC: 2.463 (Simulation time: 00 hr 00 min 41 sec)
Heartbeat CPU 0 instructions: 20000004 cycles: 8219179 heartbeat IPC: 2.101 cumulative IPC: 2.209 (Simulation time: 00 hr 01 min 29 sec)
Heartbeat CPU 0 instructions: 30000004 cycles: 12360406 heartbeat IPC: 2.415 cumulative IPC: 2.287 (Simulation time: 00 hr 02 min 10 sec)
Simulation finished CPU 0 instructions: 25000004 cycles: 10930202 cumulative IPC: 2.287 (Simulation time: 00 hr 02 min 10 sec)
Simulation complete CPU 0 instructions: 25000004 cycles: 10930202 cumulative IPC: 2.287 (Simulation time: 00 hr 02 min 10 sec)

ChampSim completed all CPUs

=== Simulation ===
CPU 0 runs /Users/aleksandrkozlov/Projects/microarch/hw2/traces/600.perlbench_s-1273B.champsimtrace.xz

Region of Interest Statistics

CPU 0 cumulative IPC: 2.287 instructions: 25000004 cycles: 10930202
CPU 0 Branch Prediction Accuracy: 98.21% MPKI: 2.344 Average ROB Occupancy at Mispredict: 150.3
Branch type MPKI
BRANCH_DIRECT_JUMP: 0.01576
BRANCH_INDIRECT: 0.5358
BRANCH_CONDITIONAL: 1.791
BRANCH_DIRECT_CALL: 0.00072
BRANCH_INDIRECT_CALL: 0.00032
BRANCH_RETURN: 0.00072

cpu0->cpu0_STLB TOTAL        ACCESS:      12344 HIT:      12203 MISS:        141 MSHR_MERGE:          0
cpu0->cpu0_STLB LOAD         ACCESS:      12344 HIT:      12203 MISS:        141 MSHR_MERGE:          0
cpu0->cpu0_STLB RFO          ACCESS:          0 HIT:          0 MISS:          0 MSHR_MERGE:          0
cpu0->cpu0_STLB PREFETCH     ACCESS:          0 HIT:          0 MISS:          0 MSHR_MERGE:          0
cpu0->cpu0_STLB WRITE        ACCESS:          0 HIT:          0 MISS:          0 MSHR_MERGE:          0
cpu0->cpu0_STLB TRANSLATION  ACCESS:          0 HIT:          0 MISS:          0 MSHR_MERGE:          0
cpu0->cpu0_STLB PREFETCH REQUESTED:          0 ISSUED:          0 USEFUL:          0 USELESS:          0
cpu0->cpu0_STLB AVERAGE MISS LATENCY: 773.4 cycles
cpu0->cpu0_L2C TOTAL        ACCESS:       2005 HIT:        661 MISS:       1344 MSHR_MERGE:          0
cpu0->cpu0_L2C LOAD         ACCESS:       1577 HIT:        519 MISS:       1058 MSHR_MERGE:          0
cpu0->cpu0_L2C RFO          ACCESS:         45 HIT:         15 MISS:         30 MSHR_MERGE:          0
cpu0->cpu0_L2C PREFETCH     ACCESS:          0 HIT:          0 MISS:          0 MSHR_MERGE:          0
cpu0->cpu0_L2C WRITE        ACCESS:        125 HIT:        125 MISS:          0 MSHR_MERGE:          0
cpu0->cpu0_L2C TRANSLATION  ACCESS:        258 HIT:          2 MISS:        256 MSHR_MERGE:          0
cpu0->cpu0_L2C PREFETCH REQUESTED:          0 ISSUED:          0 USEFUL:          0 USELESS:          0
cpu0->cpu0_L2C AVERAGE MISS LATENCY: 185.5 cycles
cpu0->cpu0_L1I TOTAL        ACCESS:    1806555 HIT:    1805904 MISS:        651 MSHR_MERGE:        105
cpu0->cpu0_L1I LOAD         ACCESS:    1806555 HIT:    1805904 MISS:        651 MSHR_MERGE:        105
cpu0->cpu0_L1I RFO          ACCESS:          0 HIT:          0 MISS:          0 MSHR_MERGE:          0
cpu0->cpu0_L1I PREFETCH     ACCESS:          0 HIT:          0 MISS:          0 MSHR_MERGE:          0
cpu0->cpu0_L1I WRITE        ACCESS:          0 HIT:          0 MISS:          0 MSHR_MERGE:          0
cpu0->cpu0_L1I TRANSLATION  ACCESS:          0 HIT:          0 MISS:          0 MSHR_MERGE:          0
cpu0->cpu0_L1I PREFETCH REQUESTED:          0 ISSUED:          0 USEFUL:          0 USELESS:          0
cpu0->cpu0_L1I AVERAGE MISS LATENCY: 25.51 cycles
cpu0->cpu0_L1D TOTAL        ACCESS:    8283861 HIT:    8282199 MISS:       1662 MSHR_MERGE:        328
cpu0->cpu0_L1D LOAD         ACCESS:    3155321 HIT:    3154061 MISS:       1260 MSHR_MERGE:        229
cpu0->cpu0_L1D RFO          ACCESS:          0 HIT:          0 MISS:          0 MSHR_MERGE:          0
cpu0->cpu0_L1D PREFETCH     ACCESS:          0 HIT:          0 MISS:          0 MSHR_MERGE:          0
cpu0->cpu0_L1D WRITE        ACCESS:    5128249 HIT:    5128106 MISS:        143 MSHR_MERGE:         98
cpu0->cpu0_L1D TRANSLATION  ACCESS:        291 HIT:         32 MISS:        259 MSHR_MERGE:          1
cpu0->cpu0_L1D PREFETCH REQUESTED:          0 ISSUED:          0 USEFUL:          0 USELESS:          0
cpu0->cpu0_L1D AVERAGE MISS LATENCY: 188.3 cycles
cpu0->cpu0_ITLB TOTAL        ACCESS:    1548063 HIT:    1547922 MISS:        141 MSHR_MERGE:         90
cpu0->cpu0_ITLB LOAD         ACCESS:    1548063 HIT:    1547922 MISS:        141 MSHR_MERGE:         90
cpu0->cpu0_ITLB RFO          ACCESS:          0 HIT:          0 MISS:          0 MSHR_MERGE:          0
cpu0->cpu0_ITLB PREFETCH     ACCESS:          0 HIT:          0 MISS:          0 MSHR_MERGE:          0
cpu0->cpu0_ITLB WRITE        ACCESS:          0 HIT:          0 MISS:          0 MSHR_MERGE:          0
cpu0->cpu0_ITLB TRANSLATION  ACCESS:          0 HIT:          0 MISS:          0 MSHR_MERGE:          0
cpu0->cpu0_ITLB PREFETCH REQUESTED:          0 ISSUED:          0 USEFUL:          0 USELESS:          0
cpu0->cpu0_ITLB AVERAGE MISS LATENCY: 35.39 cycles
cpu0->cpu0_DTLB TOTAL        ACCESS:    7349878 HIT:    7337048 MISS:      12830 MSHR_MERGE:        537
cpu0->cpu0_DTLB LOAD         ACCESS:    7349878 HIT:    7337048 MISS:      12830 MSHR_MERGE:        537
cpu0->cpu0_DTLB RFO          ACCESS:          0 HIT:          0 MISS:          0 MSHR_MERGE:          0
cpu0->cpu0_DTLB PREFETCH     ACCESS:          0 HIT:          0 MISS:          0 MSHR_MERGE:          0
cpu0->cpu0_DTLB WRITE        ACCESS:          0 HIT:          0 MISS:          0 MSHR_MERGE:          0
cpu0->cpu0_DTLB TRANSLATION  ACCESS:          0 HIT:          0 MISS:          0 MSHR_MERGE:          0
cpu0->cpu0_DTLB PREFETCH REQUESTED:          0 ISSUED:          0 USEFUL:          0 USELESS:          0
cpu0->cpu0_DTLB AVERAGE MISS LATENCY: 13.76 cycles
cpu0->LLC TOTAL        ACCESS:       1344 HIT:          0 MISS:       1344 MSHR_MERGE:          0
cpu0->LLC LOAD         ACCESS:       1058 HIT:          0 MISS:       1058 MSHR_MERGE:          0
cpu0->LLC RFO          ACCESS:         30 HIT:          0 MISS:         30 MSHR_MERGE:          0
cpu0->LLC PREFETCH     ACCESS:          0 HIT:          0 MISS:          0 MSHR_MERGE:          0
cpu0->LLC WRITE        ACCESS:          0 HIT:          0 MISS:          0 MSHR_MERGE:          0
cpu0->LLC TRANSLATION  ACCESS:        256 HIT:          0 MISS:        256 MSHR_MERGE:          0
cpu0->LLC PREFETCH REQUESTED:          0 ISSUED:          0 USEFUL:          0 USELESS:          0
cpu0->LLC AVERAGE MISS LATENCY: 169.5 cycles

DRAM Statistics

Channel 0 RQ ROW_BUFFER_HIT:          7
  ROW_BUFFER_MISS:       1337
  AVG DBUS CONGESTED CYCLE: 2.796
Channel 0 WQ ROW_BUFFER_HIT:          0
  ROW_BUFFER_MISS:          0
  FULL:          0
Channel 0 REFRESHES ISSUED:        911
