[VMEM] WARNING: physical memory size is smaller than virtual memory size.

*** ChampSim Multicore Out-of-Order Simulator ***
Warmup Instructions: 5000000
Simulation Instructions: 25000000
Number of CPUs: 1
Page size: 4096

Off-chip DRAM Size: 16 GiB Channels: 1 Width: 64-bit Data Rate: 3205 MT/s
Warmup finished CPU 0 instructions: 5000003 cycles: 1752005 cumulative IPC: 2.854 (Simulation time: 00 hr 00 min 19 sec)
Warmup complete CPU 0 instructions: 5000003 cycles: 1752005 cumulative IPC: 2.854 (Simulation time: 00 hr 00 min 19 sec)
Heartbeat CPU 0 instructions: 10000002 cycles: 19977770 heartbeat IPC: 0.5006 cumulative IPC: 0.2743 (Simulation time: 00 hr 01 min 51 sec)
Heartbeat CPU 0 instructions: 20000002 cycles: 56185611 heartbeat IPC: 0.2762 cumulative IPC: 0.2756 (Simulation time: 00 hr 09 min 36 sec)
Heartbeat CPU 0 instructions: 30000004 cycles: 92451518 heartbeat IPC: 0.2757 cumulative IPC: 0.2756 (Simulation time: 00 hr 12 min 39 sec)
Simulation finished CPU 0 instructions: 25000001 cycles: 90699513 cumulative IPC: 0.2756 (Simulation time: 00 hr 12 min 39 sec)
Simulation complete CPU 0 instructions: 25000001 cycles: 90699513 cumulative IPC: 0.2756 (Simulation time: 00 hr 12 min 39 sec)

ChampSim completed all CPUs

=== Simulation ===
CPU 0 runs /Users/aleksandrkozlov/Projects/microarch/hw2/traces/602.gcc_s-1850B.champsimtrace.xz

Region of Interest Statistics

CPU 0 cumulative IPC: 0.2756 instructions: 25000001 cycles: 90699513
CPU 0 Branch Prediction Accuracy: 96.78% MPKI: 8.259 Average ROB Occupancy at Mispredict: 63.52
Branch type MPKI
BRANCH_DIRECT_JUMP: 0.01196
BRANCH_INDIRECT: 0
BRANCH_CONDITIONAL: 8.247
BRANCH_DIRECT_CALL: 0
BRANCH_INDIRECT_CALL: 0
BRANCH_RETURN: 0

cpu0->cpu0_STLB TOTAL        ACCESS:       8288 HIT:        653 MISS:       7635 MSHR_MERGE:          0
cpu0->cpu0_STLB LOAD         ACCESS:       8288 HIT:        653 MISS:       7635 MSHR_MERGE:          0
cpu0->cpu0_STLB RFO          ACCESS:          0 HIT:          0 MISS:          0 MSHR_MERGE:          0
cpu0->cpu0_STLB PREFETCH     ACCESS:          0 HIT:          0 MISS:          0 MSHR_MERGE:          0
cpu0->cpu0_STLB WRITE        ACCESS:          0 HIT:          0 MISS:          0 MSHR_MERGE:          0
cpu0->cpu0_STLB TRANSLATION  ACCESS:          0 HIT:          0 MISS:          0 MSHR_MERGE:          0
cpu0->cpu0_STLB PREFETCH REQUESTED:          0 ISSUED:          0 USEFUL:          0 USELESS:          0
cpu0->cpu0_STLB AVERAGE MISS LATENCY: 678.9 cycles
cpu0->cpu0_L2C TOTAL        ACCESS:     614894 HIT:     160533 MISS:     454361 MSHR_MERGE:          0
cpu0->cpu0_L2C LOAD         ACCESS:     603714 HIT:     158675 MISS:     445039 MSHR_MERGE:          0
cpu0->cpu0_L2C RFO          ACCESS:        157 HIT:          0 MISS:        157 MSHR_MERGE:          0
cpu0->cpu0_L2C PREFETCH     ACCESS:          0 HIT:          0 MISS:          0 MSHR_MERGE:          0
cpu0->cpu0_L2C WRITE        ACCESS:       1581 HIT:       1581 MISS:          0 MSHR_MERGE:          0
cpu0->cpu0_L2C TRANSLATION  ACCESS:       9442 HIT:        277 MISS:       9165 MSHR_MERGE:          0
cpu0->cpu0_L2C PREFETCH REQUESTED:          0 ISSUED:          0 USEFUL:          0 USELESS:          0
cpu0->cpu0_L2C AVERAGE MISS LATENCY: 155.4 cycles
cpu0->cpu0_L1I TOTAL        ACCESS:     800248 HIT:     800248 MISS:          0 MSHR_MERGE:          0
cpu0->cpu0_L1I LOAD         ACCESS:     800248 HIT:     800248 MISS:          0 MSHR_MERGE:          0
cpu0->cpu0_L1I RFO          ACCESS:          0 HIT:          0 MISS:          0 MSHR_MERGE:          0
cpu0->cpu0_L1I PREFETCH     ACCESS:          0 HIT:          0 MISS:          0 MSHR_MERGE:          0
cpu0->cpu0_L1I WRITE        ACCESS:          0 HIT:          0 MISS:          0 MSHR_MERGE:          0
cpu0->cpu0_L1I TRANSLATION  ACCESS:          0 HIT:          0 MISS:          0 MSHR_MERGE:          0
cpu0->cpu0_L1I PREFETCH REQUESTED:          0 ISSUED:          0 USEFUL:          0 USELESS:          0
cpu0->cpu0_L1I AVERAGE MISS LATENCY: - cycles
cpu0->cpu0_L1D TOTAL        ACCESS:    6668719 HIT:    5475297 MISS:    1193422 MSHR_MERGE:     580109
cpu0->cpu0_L1D LOAD         ACCESS:    4495842 HIT:    3312022 MISS:    1183820 MSHR_MERGE:     580106
cpu0->cpu0_L1D RFO          ACCESS:          0 HIT:          0 MISS:          0 MSHR_MERGE:          0
cpu0->cpu0_L1D PREFETCH     ACCESS:          0 HIT:          0 MISS:          0 MSHR_MERGE:          0
cpu0->cpu0_L1D WRITE        ACCESS:    2157534 HIT:    2157376 MISS:        158 MSHR_MERGE:          1
cpu0->cpu0_L1D TRANSLATION  ACCESS:      15343 HIT:       5899 MISS:       9444 MSHR_MERGE:          2
cpu0->cpu0_L1D PREFETCH REQUESTED:          0 ISSUED:          0 USEFUL:          0 USELESS:          0
cpu0->cpu0_L1D AVERAGE MISS LATENCY: 123.9 cycles
cpu0->cpu0_ITLB TOTAL        ACCESS:     672525 HIT:     672525 MISS:          0 MSHR_MERGE:          0
cpu0->cpu0_ITLB LOAD         ACCESS:     672525 HIT:     672525 MISS:          0 MSHR_MERGE:          0
cpu0->cpu0_ITLB RFO          ACCESS:          0 HIT:          0 MISS:          0 MSHR_MERGE:          0
cpu0->cpu0_ITLB PREFETCH     ACCESS:          0 HIT:          0 MISS:          0 MSHR_MERGE:          0
cpu0->cpu0_ITLB WRITE        ACCESS:          0 HIT:          0 MISS:          0 MSHR_MERGE:          0
cpu0->cpu0_ITLB TRANSLATION  ACCESS:          0 HIT:          0 MISS:          0 MSHR_MERGE:          0
cpu0->cpu0_ITLB PREFETCH REQUESTED:          0 ISSUED:          0 USEFUL:          0 USELESS:          0
cpu0->cpu0_ITLB AVERAGE MISS LATENCY: - cycles
cpu0->cpu0_DTLB TOTAL        ACCESS:    6153407 HIT:    6135327 MISS:      18080 MSHR_MERGE:       9792
cpu0->cpu0_DTLB LOAD         ACCESS:    6153407 HIT:    6135327 MISS:      18080 MSHR_MERGE:       9792
cpu0->cpu0_DTLB RFO          ACCESS:          0 HIT:          0 MISS:          0 MSHR_MERGE:          0
cpu0->cpu0_DTLB PREFETCH     ACCESS:          0 HIT:          0 MISS:          0 MSHR_MERGE:          0
cpu0->cpu0_DTLB WRITE        ACCESS:          0 HIT:          0 MISS:          0 MSHR_MERGE:          0
cpu0->cpu0_DTLB TRANSLATION  ACCESS:          0 HIT:          0 MISS:          0 MSHR_MERGE:          0
cpu0->cpu0_DTLB PREFETCH REQUESTED:          0 ISSUED:          0 USEFUL:          0 USELESS:          0
cpu0->cpu0_DTLB AVERAGE MISS LATENCY: 631.4 cycles
cpu0->LLC TOTAL        ACCESS:     455024 HIT:       1333 MISS:     453691 MSHR_MERGE:          0
cpu0->LLC LOAD         ACCESS:     445039 HIT:        630 MISS:     444409 MSHR_MERGE:          0
cpu0->LLC RFO          ACCESS:        157 HIT:          0 MISS:        157 MSHR_MERGE:          0
cpu0->LLC PREFETCH     ACCESS:          0 HIT:          0 MISS:          0 MSHR_MERGE:          0
cpu0->LLC WRITE        ACCESS:        663 HIT:        662 MISS:          1 MSHR_MERGE:          0
cpu0->LLC TRANSLATION  ACCESS:       9165 HIT:         41 MISS:       9124 MSHR_MERGE:          0
cpu0->LLC PREFETCH REQUESTED:          0 ISSUED:          0 USEFUL:          0 USELESS:          0
cpu0->LLC AVERAGE MISS LATENCY: 139.6 cycles

DRAM Statistics

Channel 0 RQ ROW_BUFFER_HIT:     139271
  ROW_BUFFER_MISS:     314420
  AVG DBUS CONGESTED CYCLE: 24.53
Channel 0 WQ ROW_BUFFER_HIT:        217
  ROW_BUFFER_MISS:        470
  FULL:          0
Channel 0 REFRESHES ISSUED:       7558
