[VMEM] WARNING: physical memory size is smaller than virtual memory size.

*** ChampSim Multicore Out-of-Order Simulator ***
Warmup Instructions: 5000000
Simulation Instructions: 25000000
Number of CPUs: 1
Page size: 4096

Off-chip DRAM Size: 16 GiB Channels: 1 Width: 64-bit Data Rate: 3205 MT/s
Warmup finished CPU 0 instructions: 5000003 cycles: 1406444 cumulative IPC: 3.555 (Simulation time: 00 hr 00 min 19 sec)
Warmup complete CPU 0 instructions: 5000003 cycles: 1406444 cumulative IPC: 3.555 (Simulation time: 00 hr 00 min 19 sec)
Heartbeat CPU 0 instructions: 10000004 cycles: 7022709 heartbeat IPC: 1.424 cumulative IPC: 0.8903 (Simulation time: 00 hr 01 min 11 sec)
Heartbeat CPU 0 instructions: 20000004 cycles: 18188206 heartbeat IPC: 0.8956 cumulative IPC: 0.8938 (Simulation time: 00 hr 02 min 47 sec)
Heartbeat CPU 0 instructions: 30000005 cycles: 29346321 heartbeat IPC: 0.8962 cumulative IPC: 0.8948 (Simulation time: 00 hr 09 min 10 sec)
Simulation finished CPU 0 instructions: 25000002 cycles: 27939877 cumulative IPC: 0.8948 (Simulation time: 00 hr 09 min 10 sec)
Simulation complete CPU 0 instructions: 25000002 cycles: 27939877 cumulative IPC: 0.8948 (Simulation time: 00 hr 09 min 10 sec)

ChampSim completed all CPUs

=== Simulation ===
CPU 0 runs /Users/aleksandrkozlov/Projects/microarch/hw2/traces/603.bwaves_s-2931B.champsimtrace.xz

Region of Interest Statistics

CPU 0 cumulative IPC: 0.8948 instructions: 25000002 cycles: 27939877
CPU 0 Branch Prediction Accuracy: 99.97% MPKI: 0.00288 Average ROB Occupancy at Mispredict: 309.7
Branch type MPKI
BRANCH_DIRECT_JUMP: 0
BRANCH_INDIRECT: 0
BRANCH_CONDITIONAL: 0.00288
BRANCH_DIRECT_CALL: 0
BRANCH_INDIRECT_CALL: 0
BRANCH_RETURN: 0

cpu0->cpu0_STLB TOTAL        ACCESS:      46434 HIT:      41102 MISS:       5332 MSHR_MERGE:          0
cpu0->cpu0_STLB LOAD         ACCESS:      46434 HIT:      41102 MISS:       5332 MSHR_MERGE:          0
cpu0->cpu0_STLB RFO          ACCESS:          0 HIT:          0 MISS:          0 MSHR_MERGE:          0
cpu0->cpu0_STLB PREFETCH     ACCESS:          0 HIT:          0 MISS:          0 MSHR_MERGE:          0
cpu0->cpu0_STLB WRITE        ACCESS:          0 HIT:          0 MISS:          0 MSHR_MERGE:          0
cpu0->cpu0_STLB TRANSLATION  ACCESS:          0 HIT:          0 MISS:          0 MSHR_MERGE:          0
cpu0->cpu0_STLB PREFETCH REQUESTED:          0 ISSUED:          0 USEFUL:          0 USELESS:          0
cpu0->cpu0_STLB AVERAGE MISS LATENCY: 702.2 cycles
cpu0->cpu0_L2C TOTAL        ACCESS:     587690 HIT:     214550 MISS:     373140 MSHR_MERGE:          0
cpu0->cpu0_L2C LOAD         ACCESS:     259312 HIT:      41182 MISS:     218130 MSHR_MERGE:          0
cpu0->cpu0_L2C RFO          ACCESS:     157906 HIT:       9065 MISS:     148841 MSHR_MERGE:          0
cpu0->cpu0_L2C PREFETCH     ACCESS:          0 HIT:          0 MISS:          0 MSHR_MERGE:          0
cpu0->cpu0_L2C WRITE        ACCESS:     159837 HIT:     159821 MISS:         16 MSHR_MERGE:          0
cpu0->cpu0_L2C TRANSLATION  ACCESS:      10635 HIT:       4482 MISS:       6153 MSHR_MERGE:          0
cpu0->cpu0_L2C PREFETCH REQUESTED:          0 ISSUED:          0 USEFUL:          0 USELESS:          0
cpu0->cpu0_L2C AVERAGE MISS LATENCY: 225.5 cycles
cpu0->cpu0_L1I TOTAL        ACCESS:    4878062 HIT:    4878054 MISS:          8 MSHR_MERGE:          1
cpu0->cpu0_L1I LOAD         ACCESS:    4878062 HIT:    4878054 MISS:          8 MSHR_MERGE:          1
cpu0->cpu0_L1I RFO          ACCESS:          0 HIT:          0 MISS:          0 MSHR_MERGE:          0
cpu0->cpu0_L1I PREFETCH     ACCESS:          0 HIT:          0 MISS:          0 MSHR_MERGE:          0
cpu0->cpu0_L1I WRITE        ACCESS:          0 HIT:          0 MISS:          0 MSHR_MERGE:          0
cpu0->cpu0_L1I TRANSLATION  ACCESS:          0 HIT:          0 MISS:          0 MSHR_MERGE:          0
cpu0->cpu0_L1I PREFETCH REQUESTED:          0 ISSUED:          0 USEFUL:          0 USELESS:          0
cpu0->cpu0_L1I AVERAGE MISS LATENCY: 235.4 cycles
cpu0->cpu0_L1D TOTAL        ACCESS:    8233838 HIT:    7422611 MISS:     811227 MSHR_MERGE:     383187
cpu0->cpu0_L1D LOAD         ACCESS:    3650532 HIT:    3390178 MISS:     260354 MSHR_MERGE:       1047
cpu0->cpu0_L1D RFO          ACCESS:          0 HIT:          0 MISS:          0 MSHR_MERGE:          0
cpu0->cpu0_L1D PREFETCH     ACCESS:          0 HIT:          0 MISS:          0 MSHR_MERGE:          0
cpu0->cpu0_L1D WRITE        ACCESS:    4572625 HIT:    4032387 MISS:     540238 MSHR_MERGE:     382140
cpu0->cpu0_L1D TRANSLATION  ACCESS:      10681 HIT:         46 MISS:      10635 MSHR_MERGE:          0
cpu0->cpu0_L1D PREFETCH REQUESTED:          0 ISSUED:          0 USEFUL:          0 USELESS:          0
cpu0->cpu0_L1D AVERAGE MISS LATENCY: 205.5 cycles
cpu0->cpu0_ITLB TOTAL        ACCESS:    3868435 HIT:    3868435 MISS:          0 MSHR_MERGE:          0
cpu0->cpu0_ITLB LOAD         ACCESS:    3868435 HIT:    3868435 MISS:          0 MSHR_MERGE:          0
cpu0->cpu0_ITLB RFO          ACCESS:          0 HIT:          0 MISS:          0 MSHR_MERGE:          0
cpu0->cpu0_ITLB PREFETCH     ACCESS:          0 HIT:          0 MISS:          0 MSHR_MERGE:          0
cpu0->cpu0_ITLB WRITE        ACCESS:          0 HIT:          0 MISS:          0 MSHR_MERGE:          0
cpu0->cpu0_ITLB TRANSLATION  ACCESS:          0 HIT:          0 MISS:          0 MSHR_MERGE:          0
cpu0->cpu0_ITLB PREFETCH REQUESTED:          0 ISSUED:          0 USEFUL:          0 USELESS:          0
cpu0->cpu0_ITLB AVERAGE MISS LATENCY: - cycles
cpu0->cpu0_DTLB TOTAL        ACCESS:    7588668 HIT:    7537012 MISS:      51656 MSHR_MERGE:       5222
cpu0->cpu0_DTLB LOAD         ACCESS:    7588668 HIT:    7537012 MISS:      51656 MSHR_MERGE:       5222
cpu0->cpu0_DTLB RFO          ACCESS:          0 HIT:          0 MISS:          0 MSHR_MERGE:          0
cpu0->cpu0_DTLB PREFETCH     ACCESS:          0 HIT:          0 MISS:          0 MSHR_MERGE:          0
cpu0->cpu0_DTLB WRITE        ACCESS:          0 HIT:          0 MISS:          0 MSHR_MERGE:          0
cpu0->cpu0_DTLB TRANSLATION  ACCESS:          0 HIT:          0 MISS:          0 MSHR_MERGE:          0
cpu0->cpu0_DTLB PREFETCH REQUESTED:          0 ISSUED:          0 USEFUL:          0 USELESS:          0
cpu0->cpu0_DTLB AVERAGE MISS LATENCY: 85.76 cycles
cpu0->LLC TOTAL        ACCESS:     522072 HIT:     174657 MISS:     347415 MSHR_MERGE:          0
cpu0->LLC LOAD         ACCESS:     218130 HIT:      25718 MISS:     192412 MSHR_MERGE:          0
cpu0->LLC RFO          ACCESS:     148841 HIT:          0 MISS:     148841 MSHR_MERGE:          0
cpu0->LLC PREFETCH     ACCESS:          0 HIT:          0 MISS:          0 MSHR_MERGE:          0
cpu0->LLC WRITE        ACCESS:     148948 HIT:     148939 MISS:          9 MSHR_MERGE:          0
cpu0->LLC TRANSLATION  ACCESS:       6153 HIT:          0 MISS:       6153 MSHR_MERGE:          0
cpu0->LLC PREFETCH REQUESTED:          0 ISSUED:          0 USEFUL:          0 USELESS:          0
cpu0->LLC AVERAGE MISS LATENCY: 225.1 cycles

DRAM Statistics

Channel 0 RQ ROW_BUFFER_HIT:          6
  ROW_BUFFER_MISS:     347398
  AVG DBUS CONGESTED CYCLE: 10.74
Channel 0 WQ ROW_BUFFER_HIT:      52763
  ROW_BUFFER_MISS:      96739
  FULL:          0
Channel 0 REFRESHES ISSUED:       2328
