[VMEM] WARNING: physical memory size is smaller than virtual memory size.

*** ChampSim Multicore Out-of-Order Simulator ***
Warmup Instructions: 5000000
Simulation Instructions: 25000000
Number of CPUs: 1
Page size: 4096

Off-chip DRAM Size: 16 GiB Channels: 1 Width: 64-bit Data Rate: 3205 MT/s
Warmup finished CPU 0 instructions: 5000001 cycles: 2093705 cumulative IPC: 2.388 (Simulation time: 00 hr 00 min 23 sec)
Warmup complete CPU 0 instructions: 5000001 cycles: 2093705 cumulative IPC: 2.388 (Simulation time: 00 hr 00 min 23 sec)
Heartbeat CPU 0 instructions: 10000001 cycles: 23366420 heartbeat IPC: 0.428 cumulative IPC: 0.235 (Simulation time: 00 hr 03 min 46 sec)
Heartbeat CPU 0 instructions: 20000001 cycles: 64835539 heartbeat IPC: 0.2411 cumulative IPC: 0.2391 (Simulation time: 00 hr 27 min 22 sec)
Heartbeat CPU 0 instructions: 30000002 cycles: 106077746 heartbeat IPC: 0.2425 cumulative IPC: 0.2404 (Simulation time: 00 hr 53 min 08 sec)
Simulation finished CPU 0 instructions: 25000001 cycles: 103984041 cumulative IPC: 0.2404 (Simulation time: 00 hr 53 min 08 sec)
Simulation complete CPU 0 instructions: 25000001 cycles: 103984041 cumulative IPC: 0.2404 (Simulation time: 00 hr 53 min 08 sec)

ChampSim completed all CPUs

=== Simulation ===
CPU 0 runs /Users/aleksandrkozlov/Projects/microarch/hw2/traces/605.mcf_s-1536B.champsimtrace.xz

Region of Interest Statistics

CPU 0 cumulative IPC: 0.2404 instructions: 25000001 cycles: 103984041
CPU 0 Branch Prediction Accuracy: 99.99% MPKI: 0.022 Average ROB Occupancy at Mispredict: 304.7
Branch type MPKI
BRANCH_DIRECT_JUMP: 0
BRANCH_INDIRECT: 0
BRANCH_CONDITIONAL: 0.022
BRANCH_DIRECT_CALL: 0
BRANCH_INDIRECT_CALL: 0
BRANCH_RETURN: 0

cpu0->cpu0_STLB TOTAL        ACCESS:     691048 HIT:     130047 MISS:     561001 MSHR_MERGE:          0
cpu0->cpu0_STLB LOAD         ACCESS:     691048 HIT:     130047 MISS:     561001 MSHR_MERGE:          0
cpu0->cpu0_STLB RFO          ACCESS:          0 HIT:          0 MISS:          0 MSHR_MERGE:          0
cpu0->cpu0_STLB PREFETCH     ACCESS:          0 HIT:          0 MISS:          0 MSHR_MERGE:          0
cpu0->cpu0_STLB WRITE        ACCESS:          0 HIT:          0 MISS:          0 MSHR_MERGE:          0
cpu0->cpu0_STLB TRANSLATION  ACCESS:          0 HIT:          0 MISS:          0 MSHR_MERGE:          0
cpu0->cpu0_STLB PREFETCH REQUESTED:          0 ISSUED:          0 USEFUL:          0 USELESS:          0
cpu0->cpu0_STLB AVERAGE MISS LATENCY: 84.51 cycles
cpu0->cpu0_L2C TOTAL        ACCESS:    2899655 HIT:    1218586 MISS:    1681069 MSHR_MERGE:          0
cpu0->cpu0_L2C LOAD         ACCESS:    1154512 HIT:     404552 MISS:     749960 MSHR_MERGE:          0
cpu0->cpu0_L2C RFO          ACCESS:      71346 HIT:      19605 MISS:      51741 MSHR_MERGE:          0
cpu0->cpu0_L2C PREFETCH     ACCESS:          0 HIT:          0 MISS:          0 MSHR_MERGE:          0
cpu0->cpu0_L2C WRITE        ACCESS:     556356 HIT:     556356 MISS:          0 MSHR_MERGE:          0
cpu0->cpu0_L2C TRANSLATION  ACCESS:    1117441 HIT:     238073 MISS:     879368 MSHR_MERGE:          0
cpu0->cpu0_L2C PREFETCH REQUESTED:          0 ISSUED:          0 USEFUL:          0 USELESS:          0
cpu0->cpu0_L2C AVERAGE MISS LATENCY: 108.4 cycles
cpu0->cpu0_L1I TOTAL        ACCESS:    5559604 HIT:    5559604 MISS:          0 MSHR_MERGE:          0
cpu0->cpu0_L1I LOAD         ACCESS:    5559604 HIT:    5559604 MISS:          0 MSHR_MERGE:          0
cpu0->cpu0_L1I RFO          ACCESS:          0 HIT:          0 MISS:          0 MSHR_MERGE:          0
cpu0->cpu0_L1I PREFETCH     ACCESS:          0 HIT:          0 MISS:          0 MSHR_MERGE:          0
cpu0->cpu0_L1I WRITE        ACCESS:          0 HIT:          0 MISS:          0 MSHR_MERGE:          0
cpu0->cpu0_L1I TRANSLATION  ACCESS:          0 HIT:          0 MISS:          0 MSHR_MERGE:          0
cpu0->cpu0_L1I PREFETCH REQUESTED:          0 ISSUED:          0 USEFUL:          0 USELESS:          0
cpu0->cpu0_L1I AVERAGE MISS LATENCY: - cycles
cpu0->cpu0_L1D TOTAL        ACCESS:    7303277 HIT:    4116516 MISS:    3186761 MSHR_MERGE:     843447
cpu0->cpu0_L1D LOAD         ACCESS:    4986721 HIT:    3000520 MISS:    1986201 MSHR_MERGE:     831688
cpu0->cpu0_L1D RFO          ACCESS:          0 HIT:          0 MISS:          0 MSHR_MERGE:          0
cpu0->cpu0_L1D PREFETCH     ACCESS:          0 HIT:          0 MISS:          0 MSHR_MERGE:          0
cpu0->cpu0_L1D WRITE        ACCESS:    1108563 HIT:    1037172 MISS:      71391 MSHR_MERGE:         31
cpu0->cpu0_L1D TRANSLATION  ACCESS:    1207993 HIT:      78824 MISS:    1129169 MSHR_MERGE:      11728
cpu0->cpu0_L1D PREFETCH REQUESTED:          0 ISSUED:          0 USEFUL:          0 USELESS:          0
cpu0->cpu0_L1D AVERAGE MISS LATENCY: 86.61 cycles
cpu0->cpu0_ITLB TOTAL        ACCESS:    4981913 HIT:    4981913 MISS:          0 MSHR_MERGE:          0
cpu0->cpu0_ITLB LOAD         ACCESS:    4981913 HIT:    4981913 MISS:          0 MSHR_MERGE:          0
cpu0->cpu0_ITLB RFO          ACCESS:          0 HIT:          0 MISS:          0 MSHR_MERGE:          0
cpu0->cpu0_ITLB PREFETCH     ACCESS:          0 HIT:          0 MISS:          0 MSHR_MERGE:          0
cpu0->cpu0_ITLB WRITE        ACCESS:          0 HIT:          0 MISS:          0 MSHR_MERGE:          0
cpu0->cpu0_ITLB TRANSLATION  ACCESS:          0 HIT:          0 MISS:          0 MSHR_MERGE:          0
cpu0->cpu0_ITLB PREFETCH REQUESTED:          0 ISSUED:          0 USEFUL:          0 USELESS:          0
cpu0->cpu0_ITLB AVERAGE MISS LATENCY: - cycles
cpu0->cpu0_DTLB TOTAL        ACCESS:    6049541 HIT:    4359362 MISS:    1690179 MSHR_MERGE:     999131
cpu0->cpu0_DTLB LOAD         ACCESS:    6049541 HIT:    4359362 MISS:    1690179 MSHR_MERGE:     999131
cpu0->cpu0_DTLB RFO          ACCESS:          0 HIT:          0 MISS:          0 MSHR_MERGE:          0
cpu0->cpu0_DTLB PREFETCH     ACCESS:          0 HIT:          0 MISS:          0 MSHR_MERGE:          0
cpu0->cpu0_DTLB WRITE        ACCESS:          0 HIT:          0 MISS:          0 MSHR_MERGE:          0
cpu0->cpu0_DTLB TRANSLATION  ACCESS:          0 HIT:          0 MISS:          0 MSHR_MERGE:          0
cpu0->cpu0_DTLB PREFETCH REQUESTED:          0 ISSUED:          0 USEFUL:          0 USELESS:          0
cpu0->cpu0_DTLB AVERAGE MISS LATENCY: 74.41 cycles
cpu0->LLC TOTAL        ACCESS:    2235416 HIT:    1551418 MISS:     683998 MSHR_MERGE:          0
cpu0->LLC LOAD         ACCESS:     749960 HIT:     115202 MISS:     634758 MSHR_MERGE:          0
cpu0->LLC RFO          ACCESS:      51741 HIT:      51735 MISS:          6 MSHR_MERGE:          0
cpu0->LLC PREFETCH     ACCESS:          0 HIT:          0 MISS:          0 MSHR_MERGE:          0
cpu0->LLC WRITE        ACCESS:     554348 HIT:     554348 MISS:          0 MSHR_MERGE:          0
cpu0->LLC TRANSLATION  ACCESS:     879367 HIT:     830133 MISS:      49234 MSHR_MERGE:          0
cpu0->LLC PREFETCH REQUESTED:          0 ISSUED:          0 USEFUL:          0 USELESS:          0
cpu0->LLC AVERAGE MISS LATENCY: 228.6 cycles

DRAM Statistics

Channel 0 RQ ROW_BUFFER_HIT:        131
  ROW_BUFFER_MISS:     683868
  AVG DBUS CONGESTED CYCLE: 5.829
Channel 0 WQ ROW_BUFFER_HIT:     181707
  ROW_BUFFER_MISS:     372439
  FULL:          0
Channel 0 REFRESHES ISSUED:       8665
