[VMEM] WARNING: physical memory size is smaller than virtual memory size.

*** ChampSim Multicore Out-of-Order Simulator ***
Warmup Instructions: 5000000
Simulation Instructions: 25000000
Number of CPUs: 1
Page size: 4096

Off-chip DRAM Size: 16 GiB Channels: 1 Width: 64-bit Data Rate: 3205 MT/s
Warmup finished CPU 0 instructions: 5000004 cycles: 1498026 cumulative IPC: 3.338 (Simulation time: 00 hr 00 min 22 sec)
Warmup complete CPU 0 instructions: 5000004 cycles: 1498026 cumulative IPC: 3.338 (Simulation time: 00 hr 00 min 22 sec)
Heartbeat CPU 0 instructions: 10000002 cycles: 4424126 heartbeat IPC: 2.26 cumulative IPC: 1.709 (Simulation time: 00 hr 00 min 57 sec)
Heartbeat CPU 0 instructions: 20000002 cycles: 10564490 heartbeat IPC: 1.629 cumulative IPC: 1.654 (Simulation time: 00 hr 02 min 03 sec)
Heartbeat CPU 0 instructions: 30000006 cycles: 16703982 heartbeat IPC: 1.629 cumulative IPC: 1.644 (Simulation time: 00 hr 03 min 36 sec)
Simulation finished CPU 0 instructions: 25000002 cycles: 15205956 cumulative IPC: 1.644 (Simulation time: 00 hr 03 min 36 sec)
Simulation complete CPU 0 instructions: 25000002 cycles: 15205956 cumulative IPC: 1.644 (Simulation time: 00 hr 03 min 36 sec)

ChampSim completed all CPUs

=== Simulation ===
CPU 0 runs /Users/aleksandrkozlov/Projects/microarch/hw2/traces/607.cactuBSSN_s-2421B.champsimtrace.xz

Region of Interest Statistics

CPU 0 cumulative IPC: 1.644 instructions: 25000002 cycles: 15205956
CPU 0 Branch Prediction Accuracy: 91.63% MPKI: 0.7527 Average ROB Occupancy at Mispredict: 319.5
Branch type MPKI
BRANCH_DIRECT_JUMP: 0.00132
BRANCH_INDIRECT: 8e-05
BRANCH_CONDITIONAL: 0.3848
BRANCH_DIRECT_CALL: 0.00156
BRANCH_INDIRECT_CALL: 0
BRANCH_RETURN: 0.3649

cpu0->cpu0_STLB TOTAL        ACCESS:     962423 HIT:     961396 MISS:       1027 MSHR_MERGE:          0
cpu0->cpu0_STLB LOAD         ACCESS:     962423 HIT:     961396 MISS:       1027 MSHR_MERGE:          0
cpu0->cpu0_STLB RFO          ACCESS:          0 HIT:          0 MISS:          0 MSHR_MERGE:          0
cpu0->cpu0_STLB PREFETCH     ACCESS:          0 HIT:          0 MISS:          0 MSHR_MERGE:          0
cpu0->cpu0_STLB WRITE        ACCESS:          0 HIT:          0 MISS:          0 MSHR_MERGE:          0
cpu0->cpu0_STLB TRANSLATION  ACCESS:          0 HIT:          0 MISS:          0 MSHR_MERGE:          0
cpu0->cpu0_STLB PREFETCH REQUESTED:          0 ISSUED:          0 USEFUL:          0 USELESS:          0
cpu0->cpu0_STLB AVERAGE MISS LATENCY: 814.2 cycles
cpu0->cpu0_L2C TOTAL        ACCESS:    2661236 HIT:    2522889 MISS:     138347 MSHR_MERGE:          0
cpu0->cpu0_L2C LOAD         ACCESS:    2335854 HIT:    2214809 MISS:     121045 MSHR_MERGE:          0
cpu0->cpu0_L2C RFO          ACCESS:     153302 HIT:     138523 MISS:      14779 MSHR_MERGE:          0
cpu0->cpu0_L2C PREFETCH     ACCESS:          0 HIT:          0 MISS:          0 MSHR_MERGE:          0
cpu0->cpu0_L2C WRITE        ACCESS:     169526 HIT:     169518 MISS:          8 MSHR_MERGE:          0
cpu0->cpu0_L2C TRANSLATION  ACCESS:       2554 HIT:         39 MISS:       2515 MSHR_MERGE:          0
cpu0->cpu0_L2C PREFETCH REQUESTED:          0 ISSUED:          0 USEFUL:          0 USELESS:          0
cpu0->cpu0_L2C AVERAGE MISS LATENCY: 123.1 cycles
cpu0->cpu0_L1I TOTAL        ACCESS:    5499298 HIT:    4215490 MISS:    1283808 MSHR_MERGE:     633701
cpu0->cpu0_L1I LOAD         ACCESS:    5499298 HIT:    4215490 MISS:    1283808 MSHR_MERGE:     633701
cpu0->cpu0_L1I RFO          ACCESS:          0 HIT:          0 MISS:          0 MSHR_MERGE:          0
cpu0->cpu0_L1I PREFETCH     ACCESS:          0 HIT:          0 MISS:          0 MSHR_MERGE:          0
cpu0->cpu0_L1I WRITE        ACCESS:          0 HIT:          0 MISS:          0 MSHR_MERGE:          0
cpu0->cpu0_L1I TRANSLATION  ACCESS:          0 HIT:          0 MISS:          0 MSHR_MERGE:          0
cpu0->cpu0_L1I PREFETCH REQUESTED:          0 ISSUED:          0 USEFUL:          0 USELESS:          0
cpu0->cpu0_L1I AVERAGE MISS LATENCY: 7.205 cycles
cpu0->cpu0_L1D TOTAL        ACCESS:    9632512 HIT:    7657068 MISS:    1975444 MSHR_MERGE:     133801
cpu0->cpu0_L1D LOAD         ACCESS:    7621830 HIT:    5819952 MISS:    1801878 MSHR_MERGE:     116100
cpu0->cpu0_L1D RFO          ACCESS:          0 HIT:          0 MISS:          0 MSHR_MERGE:          0
cpu0->cpu0_L1D PREFETCH     ACCESS:          0 HIT:          0 MISS:          0 MSHR_MERGE:          0
cpu0->cpu0_L1D WRITE        ACCESS:    2008110 HIT:    1837101 MISS:     171009 MSHR_MERGE:      17698
cpu0->cpu0_L1D TRANSLATION  ACCESS:       2572 HIT:         15 MISS:       2557 MSHR_MERGE:          3
cpu0->cpu0_L1D PREFETCH REQUESTED:          0 ISSUED:          0 USEFUL:          0 USELESS:          0
cpu0->cpu0_L1D AVERAGE MISS LATENCY: 18.29 cycles
cpu0->cpu0_ITLB TOTAL        ACCESS:    4382001 HIT:    4381987 MISS:         14 MSHR_MERGE:          4
cpu0->cpu0_ITLB LOAD         ACCESS:    4382001 HIT:    4381987 MISS:         14 MSHR_MERGE:          4
cpu0->cpu0_ITLB RFO          ACCESS:          0 HIT:          0 MISS:          0 MSHR_MERGE:          0
cpu0->cpu0_ITLB PREFETCH     ACCESS:          0 HIT:          0 MISS:          0 MSHR_MERGE:          0
cpu0->cpu0_ITLB WRITE        ACCESS:          0 HIT:          0 MISS:          0 MSHR_MERGE:          0
cpu0->cpu0_ITLB TRANSLATION  ACCESS:          0 HIT:          0 MISS:          0 MSHR_MERGE:          0
cpu0->cpu0_ITLB PREFETCH REQUESTED:          0 ISSUED:          0 USEFUL:          0 USELESS:          0
cpu0->cpu0_ITLB AVERAGE MISS LATENCY: 812.6 cycles
cpu0->cpu0_DTLB TOTAL        ACCESS:    9104241 HIT:    8035481 MISS:    1068760 MSHR_MERGE:     106347
cpu0->cpu0_DTLB LOAD         ACCESS:    9104241 HIT:    8035481 MISS:    1068760 MSHR_MERGE:     106347
cpu0->cpu0_DTLB RFO          ACCESS:          0 HIT:          0 MISS:          0 MSHR_MERGE:          0
cpu0->cpu0_DTLB PREFETCH     ACCESS:          0 HIT:          0 MISS:          0 MSHR_MERGE:          0
cpu0->cpu0_DTLB WRITE        ACCESS:          0 HIT:          0 MISS:          0 MSHR_MERGE:          0
cpu0->cpu0_DTLB TRANSLATION  ACCESS:          0 HIT:          0 MISS:          0 MSHR_MERGE:          0
cpu0->cpu0_DTLB PREFETCH REQUESTED:          0 ISSUED:          0 USEFUL:          0 USELESS:          0
cpu0->cpu0_DTLB AVERAGE MISS LATENCY: 5.906 cycles
cpu0->LLC TOTAL        ACCESS:     153241 HIT:      85814 MISS:      67427 MSHR_MERGE:          0
cpu0->LLC LOAD         ACCESS:     121045 HIT:      69983 MISS:      51062 MSHR_MERGE:          0
cpu0->LLC RFO          ACCESS:      14775 HIT:         35 MISS:      14740 MSHR_MERGE:          0
cpu0->LLC PREFETCH     ACCESS:          0 HIT:          0 MISS:          0 MSHR_MERGE:          0
cpu0->LLC WRITE        ACCESS:      14906 HIT:      14903 MISS:          3 MSHR_MERGE:          0
cpu0->LLC TRANSLATION  ACCESS:       2515 HIT:        893 MISS:       1622 MSHR_MERGE:          0
cpu0->LLC PREFETCH REQUESTED:          0 ISSUED:          0 USEFUL:          0 USELESS:          0
cpu0->LLC AVERAGE MISS LATENCY: 220.7 cycles

DRAM Statistics

Channel 0 RQ ROW_BUFFER_HIT:         80
  ROW_BUFFER_MISS:      67344
  AVG DBUS CONGESTED CYCLE: 10.48
Channel 0 WQ ROW_BUFFER_HIT:        790
  ROW_BUFFER_MISS:      10380
  FULL:          0
Channel 0 REFRESHES ISSUED:       1267
