[VMEM] WARNING: physical memory size is smaller than virtual memory size.

*** ChampSim Multicore Out-of-Order Simulator ***
Warmup Instructions: 5000000
Simulation Instructions: 25000000
Number of CPUs: 1
Page size: 4096

Off-chip DRAM Size: 16 GiB Channels: 1 Width: 64-bit Data Rate: 3205 MT/s
Warmup finished CPU 0 instructions: 5000001 cycles: 1775748 cumulative IPC: 2.816 (Simulation time: 00 hr 00 min 21 sec)
Warmup complete CPU 0 instructions: 5000001 cycles: 1775748 cumulative IPC: 2.816 (Simulation time: 00 hr 00 min 21 sec)
Heartbeat CPU 0 instructions: 10000001 cycles: 12688428 heartbeat IPC: 0.7881 cumulative IPC: 0.4582 (Simulation time: 00 hr 02 min 04 sec)
Heartbeat CPU 0 instructions: 20000001 cycles: 34025531 heartbeat IPC: 0.4687 cumulative IPC: 0.4651 (Simulation time: 00 hr 10 min 12 sec)
Heartbeat CPU 0 instructions: 30000003 cycles: 55002903 heartbeat IPC: 0.4767 cumulative IPC: 0.4697 (Simulation time: 00 hr 27 min 04 sec)
Simulation finished CPU 0 instructions: 25000002 cycles: 53227155 cumulative IPC: 0.4697 (Simulation time: 00 hr 27 min 04 sec)
Simulation complete CPU 0 instructions: 25000002 cycles: 53227155 cumulative IPC: 0.4697 (Simulation time: 00 hr 27 min 04 sec)

ChampSim completed all CPUs

=== Simulation ===
CPU 0 runs /Users/aleksandrkozlov/Projects/microarch/hw2/traces/619.lbm_s-2676B.champsimtrace.xz

Region of Interest Statistics

CPU 0 cumulative IPC: 0.4697 instructions: 25000002 cycles: 53227155
CPU 0 Branch Prediction Accuracy: 97.24% MPKI: 0.4656 Average ROB Occupancy at Mispredict: 243.1
Branch type MPKI
BRANCH_DIRECT_JUMP: 0
BRANCH_INDIRECT: 0
BRANCH_CONDITIONAL: 0.4656
BRANCH_DIRECT_CALL: 0
BRANCH_INDIRECT_CALL: 0
BRANCH_RETURN: 0

cpu0->cpu0_STLB TOTAL        ACCESS:      31491 HIT:      14402 MISS:      17089 MSHR_MERGE:          0
cpu0->cpu0_STLB LOAD         ACCESS:      31491 HIT:      14402 MISS:      17089 MSHR_MERGE:          0
cpu0->cpu0_STLB RFO          ACCESS:          0 HIT:          0 MISS:          0 MSHR_MERGE:          0
cpu0->cpu0_STLB PREFETCH     ACCESS:          0 HIT:          0 MISS:          0 MSHR_MERGE:          0
cpu0->cpu0_STLB WRITE        ACCESS:          0 HIT:          0 MISS:          0 MSHR_MERGE:          0
cpu0->cpu0_STLB TRANSLATION  ACCESS:          0 HIT:          0 MISS:          0 MSHR_MERGE:          0
cpu0->cpu0_STLB PREFETCH REQUESTED:          0 ISSUED:          0 USEFUL:          0 USELESS:          0
cpu0->cpu0_STLB AVERAGE MISS LATENCY: 943.9 cycles
cpu0->cpu0_L2C TOTAL        ACCESS:    3375789 HIT:    2235448 MISS:    1140341 MSHR_MERGE:          0
cpu0->cpu0_L2C LOAD         ACCESS:     273389 HIT:         17 MISS:     273372 MSHR_MERGE:          0
cpu0->cpu0_L2C RFO          ACCESS:    1541563 HIT:     693838 MISS:     847725 MSHR_MERGE:          0
cpu0->cpu0_L2C PREFETCH     ACCESS:          0 HIT:          0 MISS:          0 MSHR_MERGE:          0
cpu0->cpu0_L2C WRITE        ACCESS:    1541593 HIT:    1541593 MISS:          0 MSHR_MERGE:          0
cpu0->cpu0_L2C TRANSLATION  ACCESS:      19244 HIT:          0 MISS:      19244 MSHR_MERGE:          0
cpu0->cpu0_L2C PREFETCH REQUESTED:          0 ISSUED:          0 USEFUL:          0 USELESS:          0
cpu0->cpu0_L2C AVERAGE MISS LATENCY: 482.9 cycles
cpu0->cpu0_L1I TOTAL        ACCESS:    4070800 HIT:    4070800 MISS:          0 MSHR_MERGE:          0
cpu0->cpu0_L1I LOAD         ACCESS:    4070800 HIT:    4070800 MISS:          0 MSHR_MERGE:          0
cpu0->cpu0_L1I RFO          ACCESS:          0 HIT:          0 MISS:          0 MSHR_MERGE:          0
cpu0->cpu0_L1I PREFETCH     ACCESS:          0 HIT:          0 MISS:          0 MSHR_MERGE:          0
cpu0->cpu0_L1I WRITE        ACCESS:          0 HIT:          0 MISS:          0 MSHR_MERGE:          0
cpu0->cpu0_L1I TRANSLATION  ACCESS:          0 HIT:          0 MISS:          0 MSHR_MERGE:          0
cpu0->cpu0_L1I PREFETCH REQUESTED:          0 ISSUED:          0 USEFUL:          0 USELESS:          0
cpu0->cpu0_L1I AVERAGE MISS LATENCY: - cycles
cpu0->cpu0_L1D TOTAL        ACCESS:    6044753 HIT:    3795484 MISS:    2249269 MSHR_MERGE:     415046
cpu0->cpu0_L1D LOAD         ACCESS:    1553751 HIT:     937766 MISS:     615985 MSHR_MERGE:     342596
cpu0->cpu0_L1D RFO          ACCESS:          0 HIT:          0 MISS:          0 MSHR_MERGE:          0
cpu0->cpu0_L1D PREFETCH     ACCESS:          0 HIT:          0 MISS:          0 MSHR_MERGE:          0
cpu0->cpu0_L1D WRITE        ACCESS:    4456806 HIT:    2842766 MISS:    1614040 MSHR_MERGE:      72450
cpu0->cpu0_L1D TRANSLATION  ACCESS:      34196 HIT:      14952 MISS:      19244 MSHR_MERGE:          0
cpu0->cpu0_L1D PREFETCH REQUESTED:          0 ISSUED:          0 USEFUL:          0 USELESS:          0
cpu0->cpu0_L1D AVERAGE MISS LATENCY: 309.8 cycles
cpu0->cpu0_ITLB TOTAL        ACCESS:    3040410 HIT:    3040410 MISS:          0 MSHR_MERGE:          0
cpu0->cpu0_ITLB LOAD         ACCESS:    3040410 HIT:    3040410 MISS:          0 MSHR_MERGE:          0
cpu0->cpu0_ITLB RFO          ACCESS:          0 HIT:          0 MISS:          0 MSHR_MERGE:          0
cpu0->cpu0_ITLB PREFETCH     ACCESS:          0 HIT:          0 MISS:          0 MSHR_MERGE:          0
cpu0->cpu0_ITLB WRITE        ACCESS:          0 HIT:          0 MISS:          0 MSHR_MERGE:          0
cpu0->cpu0_ITLB TRANSLATION  ACCESS:          0 HIT:          0 MISS:          0 MSHR_MERGE:          0
cpu0->cpu0_ITLB PREFETCH REQUESTED:          0 ISSUED:          0 USEFUL:          0 USELESS:          0
cpu0->cpu0_ITLB AVERAGE MISS LATENCY: - cycles
cpu0->cpu0_DTLB TOTAL        ACCESS:    5660242 HIT:    5565225 MISS:      95017 MSHR_MERGE:      63526
cpu0->cpu0_DTLB LOAD         ACCESS:    5660242 HIT:    5565225 MISS:      95017 MSHR_MERGE:      63526
cpu0->cpu0_DTLB RFO          ACCESS:          0 HIT:          0 MISS:          0 MSHR_MERGE:          0
cpu0->cpu0_DTLB PREFETCH     ACCESS:          0 HIT:          0 MISS:          0 MSHR_MERGE:          0
cpu0->cpu0_DTLB WRITE        ACCESS:          0 HIT:          0 MISS:          0 MSHR_MERGE:          0
cpu0->cpu0_DTLB TRANSLATION  ACCESS:          0 HIT:          0 MISS:          0 MSHR_MERGE:          0
cpu0->cpu0_DTLB PREFETCH REQUESTED:          0 ISSUED:          0 USEFUL:          0 USELESS:          0
cpu0->cpu0_DTLB AVERAGE MISS LATENCY: 517.8 cycles
cpu0->LLC TOTAL        ACCESS:    1988143 HIT:     875517 MISS:    1112626 MSHR_MERGE:          0
cpu0->LLC LOAD         ACCESS:     273372 HIT:          7 MISS:     273365 MSHR_MERGE:          0
cpu0->LLC RFO          ACCESS:     847725 HIT:      27710 MISS:     820015 MSHR_MERGE:          0
cpu0->LLC PREFETCH     ACCESS:          0 HIT:          0 MISS:          0 MSHR_MERGE:          0
cpu0->LLC WRITE        ACCESS:     847802 HIT:     847800 MISS:          2 MSHR_MERGE:          0
cpu0->LLC TRANSLATION  ACCESS:      19244 HIT:          0 MISS:      19244 MSHR_MERGE:          0
cpu0->LLC PREFETCH REQUESTED:          0 ISSUED:          0 USEFUL:          0 USELESS:          0
cpu0->LLC AVERAGE MISS LATENCY: 478.4 cycles

DRAM Statistics

Channel 0 RQ ROW_BUFFER_HIT:      57715
  ROW_BUFFER_MISS:    1054909
  AVG DBUS CONGESTED CYCLE: 7.206
Channel 0 WQ ROW_BUFFER_HIT:     131626
  ROW_BUFFER_MISS:     688488
  FULL:          0
Channel 0 REFRESHES ISSUED:       4436
