[VMEM] WARNING: physical memory size is smaller than virtual memory size.

*** ChampSim Multicore Out-of-Order Simulator ***
Warmup Instructions: 5000000
Simulation Instructions: 25000000
Number of CPUs: 1
Page size: 4096

Off-chip DRAM Size: 16 GiB Channels: 1 Width: 64-bit Data Rate: 3205 MT/s
Warmup finished CPU 0 instructions: 5000003 cycles: 3492238 cumulative IPC: 1.432 (Simulation time: 00 hr 00 min 36 sec)
Warmup complete CPU 0 instructions: 5000003 cycles: 3492238 cumulative IPC: 1.432 (Simulation time: 00 hr 00 min 36 sec)
Heartbeat CPU 0 instructions: 10000002 cycles: 24461873 heartbeat IPC: 0.4088 cumulative IPC: 0.2384 (Simulation time: 00 hr 02 min 18 sec)
Heartbeat CPU 0 instructions: 20000003 cycles: 66693897 heartbeat IPC: 0.2368 cumulative IPC: 0.2373 (Simulation time: 00 hr 10 min 30 sec)
Heartbeat CPU 0 instructions: 30000003 cycles: 106660413 heartbeat IPC: 0.2502 cumulative IPC: 0.2423 (Simulation time: 00 hr 27 min 20 sec)
Simulation finished CPU 0 instructions: 25000000 cycles: 103168175 cumulative IPC: 0.2423 (Simulation time: 00 hr 27 min 20 sec)
Simulation complete CPU 0 instructions: 25000000 cycles: 103168175 cumulative IPC: 0.2423 (Simulation time: 00 hr 27 min 20 sec)

ChampSim completed all CPUs

=== Simulation ===
CPU 0 runs /Users/aleksandrkozlov/Projects/microarch/hw2/traces/620.omnetpp_s-141B.champsimtrace.xz

Region of Interest Statistics

CPU 0 cumulative IPC: 0.2423 instructions: 25000000 cycles: 103168175
CPU 0 Branch Prediction Accuracy: 89.52% MPKI: 22.1 Average ROB Occupancy at Mispredict: 25.81
Branch type MPKI
BRANCH_DIRECT_JUMP: 0.8414
BRANCH_INDIRECT: 0.3648
BRANCH_CONDITIONAL: 19.59
BRANCH_DIRECT_CALL: 0.00052
BRANCH_INDIRECT_CALL: 0.8609
BRANCH_RETURN: 0.4358

cpu0->cpu0_STLB TOTAL        ACCESS:     562911 HIT:     442384 MISS:     120527 MSHR_MERGE:          0
cpu0->cpu0_STLB LOAD         ACCESS:     562911 HIT:     442384 MISS:     120527 MSHR_MERGE:          0
cpu0->cpu0_STLB RFO          ACCESS:          0 HIT:          0 MISS:          0 MSHR_MERGE:          0
cpu0->cpu0_STLB PREFETCH     ACCESS:          0 HIT:          0 MISS:          0 MSHR_MERGE:          0
cpu0->cpu0_STLB WRITE        ACCESS:          0 HIT:          0 MISS:          0 MSHR_MERGE:          0
cpu0->cpu0_STLB TRANSLATION  ACCESS:          0 HIT:          0 MISS:          0 MSHR_MERGE:          0
cpu0->cpu0_STLB PREFETCH REQUESTED:          0 ISSUED:          0 USEFUL:          0 USELESS:          0
cpu0->cpu0_STLB AVERAGE MISS LATENCY: 357.5 cycles
cpu0->cpu0_L2C TOTAL        ACCESS:    1017950 HIT:     448104 MISS:     569846 MSHR_MERGE:          0
cpu0->cpu0_L2C LOAD         ACCESS:     451651 HIT:     132208 MISS:     319443 MSHR_MERGE:          0
cpu0->cpu0_L2C RFO          ACCESS:      58406 HIT:      11886 MISS:      46520 MSHR_MERGE:          0
cpu0->cpu0_L2C PREFETCH     ACCESS:          0 HIT:          0 MISS:          0 MSHR_MERGE:          0
cpu0->cpu0_L2C WRITE        ACCESS:     239685 HIT:     239149 MISS:        536 MSHR_MERGE:          0
cpu0->cpu0_L2C TRANSLATION  ACCESS:     268208 HIT:      64861 MISS:     203347 MSHR_MERGE:          0
cpu0->cpu0_L2C PREFETCH REQUESTED:          0 ISSUED:          0 USEFUL:          0 USELESS:          0
cpu0->cpu0_L2C AVERAGE MISS LATENCY: 153.5 cycles
cpu0->cpu0_L1I TOTAL        ACCESS:    3300051 HIT:    3284394 MISS:      15657 MSHR_MERGE:       1588
cpu0->cpu0_L1I LOAD         ACCESS:    3300051 HIT:    3284394 MISS:      15657 MSHR_MERGE:       1588
cpu0->cpu0_L1I RFO          ACCESS:          0 HIT:          0 MISS:          0 MSHR_MERGE:          0
cpu0->cpu0_L1I PREFETCH     ACCESS:          0 HIT:          0 MISS:          0 MSHR_MERGE:          0
cpu0->cpu0_L1I WRITE        ACCESS:          0 HIT:          0 MISS:          0 MSHR_MERGE:          0
cpu0->cpu0_L1I TRANSLATION  ACCESS:          0 HIT:          0 MISS:          0 MSHR_MERGE:          0
cpu0->cpu0_L1I PREFETCH REQUESTED:          0 ISSUED:          0 USEFUL:          0 USELESS:          0
cpu0->cpu0_L1I AVERAGE MISS LATENCY: 18.45 cycles
cpu0->cpu0_L1D TOTAL        ACCESS:   10428846 HIT:    9425180 MISS:    1003666 MSHR_MERGE:     239469
cpu0->cpu0_L1D LOAD         ACCESS:    5597284 HIT:    5038810 MISS:     558474 MSHR_MERGE:     120891
cpu0->cpu0_L1D RFO          ACCESS:          0 HIT:          0 MISS:          0 MSHR_MERGE:          0
cpu0->cpu0_L1D PREFETCH     ACCESS:          0 HIT:          0 MISS:          0 MSHR_MERGE:          0
cpu0->cpu0_L1D WRITE        ACCESS:    4541253 HIT:    4364654 MISS:     176599 MSHR_MERGE:     118193
cpu0->cpu0_L1D TRANSLATION  ACCESS:     290309 HIT:      21716 MISS:     268593 MSHR_MERGE:        385
cpu0->cpu0_L1D PREFETCH REQUESTED:          0 ISSUED:          0 USEFUL:          0 USELESS:          0
cpu0->cpu0_L1D AVERAGE MISS LATENCY: 123 cycles
cpu0->cpu0_ITLB TOTAL        ACCESS:    2938602 HIT:    2867926 MISS:      70676 MSHR_MERGE:      30355
cpu0->cpu0_ITLB LOAD         ACCESS:    2938602 HIT:    2867926 MISS:      70676 MSHR_MERGE:      30355
cpu0->cpu0_ITLB RFO          ACCESS:          0 HIT:          0 MISS:          0 MSHR_MERGE:          0
cpu0->cpu0_ITLB PREFETCH     ACCESS:          0 HIT:          0 MISS:          0 MSHR_MERGE:          0
cpu0->cpu0_ITLB WRITE        ACCESS:          0 HIT:          0 MISS:          0 MSHR_MERGE:          0
cpu0->cpu0_ITLB TRANSLATION  ACCESS:          0 HIT:          0 MISS:          0 MSHR_MERGE:          0
cpu0->cpu0_ITLB PREFETCH REQUESTED:          0 ISSUED:          0 USEFUL:          0 USELESS:          0
cpu0->cpu0_ITLB AVERAGE MISS LATENCY: 7.659 cycles
cpu0->cpu0_DTLB TOTAL        ACCESS:    9671050 HIT:    9060838 MISS:     610212 MSHR_MERGE:      87622
cpu0->cpu0_DTLB LOAD         ACCESS:    9671050 HIT:    9060838 MISS:     610212 MSHR_MERGE:      87622
cpu0->cpu0_DTLB RFO          ACCESS:          0 HIT:          0 MISS:          0 MSHR_MERGE:          0
cpu0->cpu0_DTLB PREFETCH     ACCESS:          0 HIT:          0 MISS:          0 MSHR_MERGE:          0
cpu0->cpu0_DTLB WRITE        ACCESS:          0 HIT:          0 MISS:          0 MSHR_MERGE:          0
cpu0->cpu0_DTLB TRANSLATION  ACCESS:          0 HIT:          0 MISS:          0 MSHR_MERGE:          0
cpu0->cpu0_DTLB PREFETCH REQUESTED:          0 ISSUED:          0 USEFUL:          0 USELESS:          0
cpu0->cpu0_DTLB AVERAGE MISS LATENCY: 87.48 cycles
cpu0->LLC TOTAL        ACCESS:     750247 HIT:     330177 MISS:     420070 MSHR_MERGE:          0
cpu0->LLC LOAD         ACCESS:     319443 HIT:      71440 MISS:     248003 MSHR_MERGE:          0
cpu0->LLC RFO          ACCESS:      46520 HIT:      17035 MISS:      29485 MSHR_MERGE:          0
cpu0->LLC PREFETCH     ACCESS:          0 HIT:          0 MISS:          0 MSHR_MERGE:          0
cpu0->LLC WRITE        ACCESS:     180937 HIT:     180225 MISS:        712 MSHR_MERGE:          0
cpu0->LLC TRANSLATION  ACCESS:     203347 HIT:      61477 MISS:     141870 MSHR_MERGE:          0
cpu0->LLC PREFETCH REQUESTED:          0 ISSUED:          0 USEFUL:          0 USELESS:          0
cpu0->LLC AVERAGE MISS LATENCY: 187 cycles

DRAM Statistics

Channel 0 RQ ROW_BUFFER_HIT:       1435
  ROW_BUFFER_MISS:     417917
  AVG DBUS CONGESTED CYCLE: 20.21
Channel 0 WQ ROW_BUFFER_HIT:      40192
  ROW_BUFFER_MISS:      91848
  FULL:          0
Channel 0 REFRESHES ISSUED:       8597
