[VMEM] WARNING: physical memory size is smaller than virtual memory size.

*** ChampSim Multicore Out-of-Order Simulator ***
Warmup Instructions: 5000000
Simulation Instructions: 25000000
Number of CPUs: 1
Page size: 4096

Off-chip DRAM Size: 16 GiB Channels: 1 Width: 64-bit Data Rate: 3205 MT/s
Warmup finished CPU 0 instructions: 5000004 cycles: 1255151 cumulative IPC: 3.984 (Simulation time: 00 hr 00 min 15 sec)
Warmup complete CPU 0 instructions: 5000004 cycles: 1255151 cumulative IPC: 3.984 (Simulation time: 00 hr 00 min 15 sec)
Heartbeat CPU 0 instructions: 10000002 cycles: 5408504 heartbeat IPC: 1.849 cumulative IPC: 1.204 (Simulation time: 00 hr 00 min 45 sec)
Heartbeat CPU 0 instructions: 20000002 cycles: 13563132 heartbeat IPC: 1.226 cumulative IPC: 1.219 (Simulation time: 00 hr 01 min 42 sec)
Heartbeat CPU 0 instructions: 30000002 cycles: 21748832 heartbeat IPC: 1.222 cumulative IPC: 1.22 (Simulation time: 00 hr 02 min 37 sec)
Simulation finished CPU 0 instructions: 25000000 cycles: 20493687 cumulative IPC: 1.22 (Simulation time: 00 hr 02 min 37 sec)
Simulation complete CPU 0 instructions: 25000000 cycles: 20493687 cumulative IPC: 1.22 (Simulation time: 00 hr 02 min 37 sec)

ChampSim completed all CPUs

=== Simulation ===
CPU 0 runs /Users/aleksandrkozlov/Projects/microarch/hw2/traces/621.wrf_s-575B.champsimtrace.xz

Region of Interest Statistics

CPU 0 cumulative IPC: 1.22 instructions: 25000000 cycles: 20493687
CPU 0 Branch Prediction Accuracy: 94.45% MPKI: 7.413 Average ROB Occupancy at Mispredict: 82.44
Branch type MPKI
BRANCH_DIRECT_JUMP: 0.00064
BRANCH_INDIRECT: 0
BRANCH_CONDITIONAL: 7.389
BRANCH_DIRECT_CALL: 0.00312
BRANCH_INDIRECT_CALL: 0
BRANCH_RETURN: 0.02012

cpu0->cpu0_STLB TOTAL        ACCESS:       1022 HIT:        938 MISS:         84 MSHR_MERGE:          0
cpu0->cpu0_STLB LOAD         ACCESS:       1022 HIT:        938 MISS:         84 MSHR_MERGE:          0
cpu0->cpu0_STLB RFO          ACCESS:          0 HIT:          0 MISS:          0 MSHR_MERGE:          0
cpu0->cpu0_STLB PREFETCH     ACCESS:          0 HIT:          0 MISS:          0 MSHR_MERGE:          0
cpu0->cpu0_STLB WRITE        ACCESS:          0 HIT:          0 MISS:          0 MSHR_MERGE:          0
cpu0->cpu0_STLB TRANSLATION  ACCESS:          0 HIT:          0 MISS:          0 MSHR_MERGE:          0
cpu0->cpu0_STLB PREFETCH REQUESTED:          0 ISSUED:          0 USEFUL:          0 USELESS:          0
cpu0->cpu0_STLB AVERAGE MISS LATENCY: 876.8 cycles
cpu0->cpu0_L2C TOTAL        ACCESS:       1788 HIT:        418 MISS:       1370 MSHR_MERGE:          0
cpu0->cpu0_L2C LOAD         ACCESS:        830 HIT:        163 MISS:        667 MSHR_MERGE:          0
cpu0->cpu0_L2C RFO          ACCESS:        554 HIT:         12 MISS:        542 MSHR_MERGE:          0
cpu0->cpu0_L2C PREFETCH     ACCESS:          0 HIT:          0 MISS:          0 MSHR_MERGE:          0
cpu0->cpu0_L2C WRITE        ACCESS:        240 HIT:        240 MISS:          0 MSHR_MERGE:          0
cpu0->cpu0_L2C TRANSLATION  ACCESS:        164 HIT:          3 MISS:        161 MSHR_MERGE:          0
cpu0->cpu0_L2C PREFETCH REQUESTED:          0 ISSUED:          0 USEFUL:          0 USELESS:          0
cpu0->cpu0_L2C AVERAGE MISS LATENCY: 197.3 cycles
cpu0->cpu0_L1I TOTAL        ACCESS:     587765 HIT:     587239 MISS:        526 MSHR_MERGE:        120
cpu0->cpu0_L1I LOAD         ACCESS:     587765 HIT:     587239 MISS:        526 MSHR_MERGE:        120
cpu0->cpu0_L1I RFO          ACCESS:          0 HIT:          0 MISS:          0 MSHR_MERGE:          0
cpu0->cpu0_L1I PREFETCH     ACCESS:          0 HIT:          0 MISS:          0 MSHR_MERGE:          0
cpu0->cpu0_L1I WRITE        ACCESS:          0 HIT:          0 MISS:          0 MSHR_MERGE:          0
cpu0->cpu0_L1I TRANSLATION  ACCESS:          0 HIT:          0 MISS:          0 MSHR_MERGE:          0
cpu0->cpu0_L1I PREFETCH REQUESTED:          0 ISSUED:          0 USEFUL:          0 USELESS:          0
cpu0->cpu0_L1I AVERAGE MISS LATENCY: 134.1 cycles
cpu0->cpu0_L1D TOTAL        ACCESS:    4586864 HIT:    4584427 MISS:       2437 MSHR_MERGE:       1295
cpu0->cpu0_L1D LOAD         ACCESS:    3613312 HIT:    3612411 MISS:        901 MSHR_MERGE:        477
cpu0->cpu0_L1D RFO          ACCESS:          0 HIT:          0 MISS:          0 MSHR_MERGE:          0
cpu0->cpu0_L1D PREFETCH     ACCESS:          0 HIT:          0 MISS:          0 MSHR_MERGE:          0
cpu0->cpu0_L1D WRITE        ACCESS:     973370 HIT:     972003 MISS:       1367 MSHR_MERGE:        813
cpu0->cpu0_L1D TRANSLATION  ACCESS:        182 HIT:         13 MISS:        169 MSHR_MERGE:          5
cpu0->cpu0_L1D PREFETCH REQUESTED:          0 ISSUED:          0 USEFUL:          0 USELESS:          0
cpu0->cpu0_L1D AVERAGE MISS LATENCY: 200.8 cycles
cpu0->cpu0_ITLB TOTAL        ACCESS:     480171 HIT:     480141 MISS:         30 MSHR_MERGE:         19
cpu0->cpu0_ITLB LOAD         ACCESS:     480171 HIT:     480141 MISS:         30 MSHR_MERGE:         19
cpu0->cpu0_ITLB RFO          ACCESS:          0 HIT:          0 MISS:          0 MSHR_MERGE:          0
cpu0->cpu0_ITLB PREFETCH     ACCESS:          0 HIT:          0 MISS:          0 MSHR_MERGE:          0
cpu0->cpu0_ITLB WRITE        ACCESS:          0 HIT:          0 MISS:          0 MSHR_MERGE:          0
cpu0->cpu0_ITLB TRANSLATION  ACCESS:          0 HIT:          0 MISS:          0 MSHR_MERGE:          0
cpu0->cpu0_ITLB PREFETCH REQUESTED:          0 ISSUED:          0 USEFUL:          0 USELESS:          0
cpu0->cpu0_ITLB AVERAGE MISS LATENCY: 758.6 cycles
cpu0->cpu0_DTLB TOTAL        ACCESS:    4505800 HIT:    4504333 MISS:       1467 MSHR_MERGE:        456
cpu0->cpu0_DTLB LOAD         ACCESS:    4505800 HIT:    4504333 MISS:       1467 MSHR_MERGE:        456
cpu0->cpu0_DTLB RFO          ACCESS:          0 HIT:          0 MISS:          0 MSHR_MERGE:          0
cpu0->cpu0_DTLB PREFETCH     ACCESS:          0 HIT:          0 MISS:          0 MSHR_MERGE:          0
cpu0->cpu0_DTLB WRITE        ACCESS:          0 HIT:          0 MISS:          0 MSHR_MERGE:          0
cpu0->cpu0_DTLB TRANSLATION  ACCESS:          0 HIT:          0 MISS:          0 MSHR_MERGE:          0
cpu0->cpu0_DTLB PREFETCH REQUESTED:          0 ISSUED:          0 USEFUL:          0 USELESS:          0
cpu0->cpu0_DTLB AVERAGE MISS LATENCY: 69.74 cycles
cpu0->LLC TOTAL        ACCESS:       1370 HIT:          0 MISS:       1370 MSHR_MERGE:          0
cpu0->LLC LOAD         ACCESS:        667 HIT:          0 MISS:        667 MSHR_MERGE:          0
cpu0->LLC RFO          ACCESS:        542 HIT:          0 MISS:        542 MSHR_MERGE:          0
cpu0->LLC PREFETCH     ACCESS:          0 HIT:          0 MISS:          0 MSHR_MERGE:          0
cpu0->LLC WRITE        ACCESS:          0 HIT:          0 MISS:          0 MSHR_MERGE:          0
cpu0->LLC TRANSLATION  ACCESS:        161 HIT:          0 MISS:        161 MSHR_MERGE:          0
cpu0->LLC PREFETCH REQUESTED:          0 ISSUED:          0 USEFUL:          0 USELESS:          0
cpu0->LLC AVERAGE MISS LATENCY: 181.3 cycles

DRAM Statistics

Channel 0 RQ ROW_BUFFER_HIT:          1
  ROW_BUFFER_MISS:       1369
  AVG DBUS CONGESTED CYCLE: 2.862
Channel 0 WQ ROW_BUFFER_HIT:          0
  ROW_BUFFER_MISS:          0
  FULL:          0
Channel 0 REFRESHES ISSUED:       1708
