[VMEM] WARNING: physical memory size is smaller than virtual memory size.

*** ChampSim Multicore Out-of-Order Simulator ***
Warmup Instructions: 5000000
Simulation Instructions: 25000000
Number of CPUs: 1
Page size: 4096

Off-chip DRAM Size: 16 GiB Channels: 1 Width: 64-bit Data Rate: 3205 MT/s
Warmup finished CPU 0 instructions: 5000000 cycles: 1449649 cumulative IPC: 3.449 (Simulation time: 00 hr 00 min 17 sec)
Warmup complete CPU 0 instructions: 5000000 cycles: 1449649 cumulative IPC: 3.449 (Simulation time: 00 hr 00 min 17 sec)
Heartbeat CPU 0 instructions: 10000001 cycles: 11069696 heartbeat IPC: 0.9034 cumulative IPC: 0.5197 (Simulation time: 00 hr 01 min 38 sec)
Heartbeat CPU 0 instructions: 20000003 cycles: 30399649 heartbeat IPC: 0.5173 cumulative IPC: 0.5181 (Simulation time: 00 hr 07 min 43 sec)
Simulation finished CPU 0 instructions: 25000001 cycles: 48251281 cumulative IPC: 0.5181 (Simulation time: 00 hr 09 min 30 sec)
Simulation complete CPU 0 instructions: 25000001 cycles: 48251281 cumulative IPC: 0.5181 (Simulation time: 00 hr 09 min 30 sec)

ChampSim completed all CPUs

=== Simulation ===
CPU 0 runs /Users/aleksandrkozlov/Projects/microarch/hw2/traces/623.xalancbmk_s-165B.champsimtrace.xz

Region of Interest Statistics

CPU 0 cumulative IPC: 0.5181 instructions: 25000001 cycles: 48251281
CPU 0 Branch Prediction Accuracy: 96.52% MPKI: 9.711 Average ROB Occupancy at Mispredict: 59.18
Branch type MPKI
BRANCH_DIRECT_JUMP: 0
BRANCH_INDIRECT: 0
BRANCH_CONDITIONAL: 9.711
BRANCH_DIRECT_CALL: 0
BRANCH_INDIRECT_CALL: 0
BRANCH_RETURN: 0

cpu0->cpu0_STLB TOTAL        ACCESS:       8836 HIT:       8807 MISS:         29 MSHR_MERGE:          0
cpu0->cpu0_STLB LOAD         ACCESS:       8836 HIT:       8807 MISS:         29 MSHR_MERGE:          0
cpu0->cpu0_STLB RFO          ACCESS:          0 HIT:          0 MISS:          0 MSHR_MERGE:          0
cpu0->cpu0_STLB PREFETCH     ACCESS:          0 HIT:          0 MISS:          0 MSHR_MERGE:          0
cpu0->cpu0_STLB WRITE        ACCESS:          0 HIT:          0 MISS:          0 MSHR_MERGE:          0
cpu0->cpu0_STLB TRANSLATION  ACCESS:          0 HIT:          0 MISS:          0 MSHR_MERGE:          0
cpu0->cpu0_STLB PREFETCH REQUESTED:          0 ISSUED:          0 USEFUL:          0 USELESS:          0
cpu0->cpu0_STLB AVERAGE MISS LATENCY: 768.7 cycles
cpu0->cpu0_L2C TOTAL        ACCESS:     475745 HIT:        338 MISS:     475407 MSHR_MERGE:          0
cpu0->cpu0_L2C LOAD         ACCESS:     475334 HIT:        124 MISS:     475210 MSHR_MERGE:          0
cpu0->cpu0_L2C RFO          ACCESS:        146 HIT:          0 MISS:        146 MSHR_MERGE:          0
cpu0->cpu0_L2C PREFETCH     ACCESS:          0 HIT:          0 MISS:          0 MSHR_MERGE:          0
cpu0->cpu0_L2C WRITE        ACCESS:        214 HIT:        214 MISS:          0 MSHR_MERGE:          0
cpu0->cpu0_L2C TRANSLATION  ACCESS:         51 HIT:          0 MISS:         51 MSHR_MERGE:          0
cpu0->cpu0_L2C PREFETCH REQUESTED:          0 ISSUED:          0 USEFUL:          0 USELESS:          0
cpu0->cpu0_L2C AVERAGE MISS LATENCY: 118.8 cycles
cpu0->cpu0_L1I TOTAL        ACCESS:        143 HIT:        143 MISS:          0 MSHR_MERGE:          0
cpu0->cpu0_L1I LOAD         ACCESS:        143 HIT:        143 MISS:          0 MSHR_MERGE:          0
cpu0->cpu0_L1I RFO          ACCESS:          0 HIT:          0 MISS:          0 MSHR_MERGE:          0
cpu0->cpu0_L1I PREFETCH     ACCESS:          0 HIT:          0 MISS:          0 MSHR_MERGE:          0
cpu0->cpu0_L1I WRITE        ACCESS:          0 HIT:          0 MISS:          0 MSHR_MERGE:          0
cpu0->cpu0_L1I TRANSLATION  ACCESS:          0 HIT:          0 MISS:          0 MSHR_MERGE:          0
cpu0->cpu0_L1I PREFETCH REQUESTED:          0 ISSUED:          0 USEFUL:          0 USELESS:          0
cpu0->cpu0_L1I AVERAGE MISS LATENCY: - cycles
cpu0->cpu0_L1D TOTAL        ACCESS:    7036633 HIT:    5427570 MISS:    1609063 MSHR_MERGE:    1133532
cpu0->cpu0_L1D LOAD         ACCESS:    6708375 HIT:    5099979 MISS:    1608396 MSHR_MERGE:    1133062
cpu0->cpu0_L1D RFO          ACCESS:          0 HIT:          0 MISS:          0 MSHR_MERGE:          0
cpu0->cpu0_L1D PREFETCH     ACCESS:          0 HIT:          0 MISS:          0 MSHR_MERGE:          0
cpu0->cpu0_L1D WRITE        ACCESS:     328200 HIT:     327585 MISS:        615 MSHR_MERGE:        469
cpu0->cpu0_L1D TRANSLATION  ACCESS:         58 HIT:          6 MISS:         52 MSHR_MERGE:          1
cpu0->cpu0_L1D PREFETCH REQUESTED:          0 ISSUED:          0 USEFUL:          0 USELESS:          0
cpu0->cpu0_L1D AVERAGE MISS LATENCY: 127.8 cycles
cpu0->cpu0_ITLB TOTAL        ACCESS:        119 HIT:        119 MISS:          0 MSHR_MERGE:          0
cpu0->cpu0_ITLB LOAD         ACCESS:        119 HIT:        119 MISS:          0 MSHR_MERGE:          0
cpu0->cpu0_ITLB RFO          ACCESS:          0 HIT:          0 MISS:          0 MSHR_MERGE:          0
cpu0->cpu0_ITLB PREFETCH     ACCESS:          0 HIT:          0 MISS:          0 MSHR_MERGE:          0
cpu0->cpu0_ITLB WRITE        ACCESS:          0 HIT:          0 MISS:          0 MSHR_MERGE:          0
cpu0->cpu0_ITLB TRANSLATION  ACCESS:          0 HIT:          0 MISS:          0 MSHR_MERGE:          0
cpu0->cpu0_ITLB PREFETCH REQUESTED:          0 ISSUED:          0 USEFUL:          0 USELESS:          0
cpu0->cpu0_ITLB AVERAGE MISS LATENCY: - cycles
cpu0->cpu0_DTLB TOTAL        ACCESS:    6989566 HIT:    6968435 MISS:      21131 MSHR_MERGE:      12295
cpu0->cpu0_DTLB LOAD         ACCESS:    6989566 HIT:    6968435 MISS:      21131 MSHR_MERGE:      12295
cpu0->cpu0_DTLB RFO          ACCESS:          0 HIT:          0 MISS:          0 MSHR_MERGE:          0
cpu0->cpu0_DTLB PREFETCH     ACCESS:          0 HIT:          0 MISS:          0 MSHR_MERGE:          0
cpu0->cpu0_DTLB WRITE        ACCESS:          0 HIT:          0 MISS:          0 MSHR_MERGE:          0
cpu0->cpu0_DTLB TRANSLATION  ACCESS:          0 HIT:          0 MISS:          0 MSHR_MERGE:          0
cpu0->cpu0_DTLB PREFETCH REQUESTED:          0 ISSUED:          0 USEFUL:          0 USELESS:          0
cpu0->cpu0_DTLB AVERAGE MISS LATENCY: 7.526 cycles
cpu0->LLC TOTAL        ACCESS:     475621 HIT:     165525 MISS:     310096 MSHR_MERGE:          0
cpu0->LLC LOAD         ACCESS:     475210 HIT:     165250 MISS:     309960 MSHR_MERGE:          0
cpu0->LLC RFO          ACCESS:        146 HIT:         56 MISS:         90 MSHR_MERGE:          0
cpu0->LLC PREFETCH     ACCESS:          0 HIT:          0 MISS:          0 MSHR_MERGE:          0
cpu0->LLC WRITE        ACCESS:        214 HIT:        214 MISS:          0 MSHR_MERGE:          0
cpu0->LLC TRANSLATION  ACCESS:         51 HIT:          5 MISS:         46 MSHR_MERGE:          0
cpu0->LLC PREFETCH REQUESTED:          0 ISSUED:          0 USEFUL:          0 USELESS:          0
cpu0->LLC AVERAGE MISS LATENCY: 158.1 cycles

DRAM Statistics

Channel 0 RQ ROW_BUFFER_HIT:      78951
  ROW_BUFFER_MISS:     231145
  AVG DBUS CONGESTED CYCLE: 3.204
Channel 0 WQ ROW_BUFFER_HIT:         51
  ROW_BUFFER_MISS:         91
  FULL:          0
Channel 0 REFRESHES ISSUED:       4021
