[VMEM] WARNING: physical memory size is smaller than virtual memory size.

*** ChampSim Multicore Out-of-Order Simulator ***
Warmup Instructions: 5000000
Simulation Instructions: 25000000
Number of CPUs: 1
Page size: 4096

Off-chip DRAM Size: 16 GiB Channels: 1 Width: 64-bit Data Rate: 3205 MT/s
Warmup finished CPU 0 instructions: 5000002 cycles: 1277111 cumulative IPC: 3.915 (Simulation time: 00 hr 00 min 15 sec)
Warmup complete CPU 0 instructions: 5000002 cycles: 1277111 cumulative IPC: 3.915 (Simulation time: 00 hr 00 min 15 sec)
Heartbeat CPU 0 instructions: 10000003 cycles: 3162886 heartbeat IPC: 3.162 cumulative IPC: 2.651 (Simulation time: 00 hr 01 min 06 sec)
Heartbeat CPU 0 instructions: 20000006 cycles: 6638605 heartbeat IPC: 2.877 cumulative IPC: 2.798 (Simulation time: 00 hr 01 min 43 sec)
Simulation finished CPU 0 instructions: 25000000 cycles: 8800449 cumulative IPC: 2.841 (Simulation time: 00 hr 06 min 42 sec)
Simulation complete CPU 0 instructions: 25000000 cycles: 8800449 cumulative IPC: 2.841 (Simulation time: 00 hr 06 min 42 sec)

ChampSim completed all CPUs

=== Simulation ===
CPU 0 runs /Users/aleksandrkozlov/Projects/microarch/hw2/traces/625.x264_s-12B.champsimtrace.xz

Region of Interest Statistics

CPU 0 cumulative IPC: 2.841 instructions: 25000000 cycles: 8800449
CPU 0 Branch Prediction Accuracy: 97.53% MPKI: 0.9601 Average ROB Occupancy at Mispredict: 175.8
Branch type MPKI
BRANCH_DIRECT_JUMP: 0.00068
BRANCH_INDIRECT: 0.00016
BRANCH_CONDITIONAL: 0.9532
BRANCH_DIRECT_CALL: 0.00028
BRANCH_INDIRECT_CALL: 0.0046
BRANCH_RETURN: 0.00116

cpu0->cpu0_STLB TOTAL        ACCESS:       2791 HIT:       2657 MISS:        134 MSHR_MERGE:          0
cpu0->cpu0_STLB LOAD         ACCESS:       2791 HIT:       2657 MISS:        134 MSHR_MERGE:          0
cpu0->cpu0_STLB RFO          ACCESS:          0 HIT:          0 MISS:          0 MSHR_MERGE:          0
cpu0->cpu0_STLB PREFETCH     ACCESS:          0 HIT:          0 MISS:          0 MSHR_MERGE:          0
cpu0->cpu0_STLB WRITE        ACCESS:          0 HIT:          0 MISS:          0 MSHR_MERGE:          0
cpu0->cpu0_STLB TRANSLATION  ACCESS:          0 HIT:          0 MISS:          0 MSHR_MERGE:          0
cpu0->cpu0_STLB PREFETCH REQUESTED:          0 ISSUED:          0 USEFUL:          0 USELESS:          0
cpu0->cpu0_STLB AVERAGE MISS LATENCY: 720.8 cycles
cpu0->cpu0_L2C TOTAL        ACCESS:      11995 HIT:       4506 MISS:       7489 MSHR_MERGE:          0
cpu0->cpu0_L2C LOAD         ACCESS:      11350 HIT:       4317 MISS:       7033 MSHR_MERGE:          0
cpu0->cpu0_L2C RFO          ACCESS:        242 HIT:          0 MISS:        242 MSHR_MERGE:          0
cpu0->cpu0_L2C PREFETCH     ACCESS:          0 HIT:          0 MISS:          0 MSHR_MERGE:          0
cpu0->cpu0_L2C WRITE        ACCESS:        186 HIT:        185 MISS:          1 MSHR_MERGE:          0
cpu0->cpu0_L2C TRANSLATION  ACCESS:        217 HIT:          4 MISS:        213 MSHR_MERGE:          0
cpu0->cpu0_L2C PREFETCH REQUESTED:          0 ISSUED:          0 USEFUL:          0 USELESS:          0
cpu0->cpu0_L2C AVERAGE MISS LATENCY: 149 cycles
cpu0->cpu0_L1I TOTAL        ACCESS:    3442595 HIT:    3442373 MISS:        222 MSHR_MERGE:         63
cpu0->cpu0_L1I LOAD         ACCESS:    3442595 HIT:    3442373 MISS:        222 MSHR_MERGE:         63
cpu0->cpu0_L1I RFO          ACCESS:          0 HIT:          0 MISS:          0 MSHR_MERGE:          0
cpu0->cpu0_L1I PREFETCH     ACCESS:          0 HIT:          0 MISS:          0 MSHR_MERGE:          0
cpu0->cpu0_L1I WRITE        ACCESS:          0 HIT:          0 MISS:          0 MSHR_MERGE:          0
cpu0->cpu0_L1I TRANSLATION  ACCESS:          0 HIT:          0 MISS:          0 MSHR_MERGE:          0
cpu0->cpu0_L1I PREFETCH REQUESTED:          0 ISSUED:          0 USEFUL:          0 USELESS:          0
cpu0->cpu0_L1I AVERAGE MISS LATENCY: 211.9 cycles
cpu0->cpu0_L1D TOTAL        ACCESS:    4839539 HIT:    4803664 MISS:      35875 MSHR_MERGE:      24225
cpu0->cpu0_L1D LOAD         ACCESS:    3318366 HIT:    3283124 MISS:      35242 MSHR_MERGE:      24051
cpu0->cpu0_L1D RFO          ACCESS:          0 HIT:          0 MISS:          0 MSHR_MERGE:          0
cpu0->cpu0_L1D PREFETCH     ACCESS:          0 HIT:          0 MISS:          0 MSHR_MERGE:          0
cpu0->cpu0_L1D WRITE        ACCESS:    1520905 HIT:    1520489 MISS:        416 MSHR_MERGE:        174
cpu0->cpu0_L1D TRANSLATION  ACCESS:        268 HIT:         51 MISS:        217 MSHR_MERGE:          0
cpu0->cpu0_L1D PREFETCH REQUESTED:          0 ISSUED:          0 USEFUL:          0 USELESS:          0
cpu0->cpu0_L1D AVERAGE MISS LATENCY: 101.6 cycles
cpu0->cpu0_ITLB TOTAL        ACCESS:    3135241 HIT:    3135203 MISS:         38 MSHR_MERGE:         28
cpu0->cpu0_ITLB LOAD         ACCESS:    3135241 HIT:    3135203 MISS:         38 MSHR_MERGE:         28
cpu0->cpu0_ITLB RFO          ACCESS:          0 HIT:          0 MISS:          0 MSHR_MERGE:          0
cpu0->cpu0_ITLB PREFETCH     ACCESS:          0 HIT:          0 MISS:          0 MSHR_MERGE:          0
cpu0->cpu0_ITLB WRITE        ACCESS:          0 HIT:          0 MISS:          0 MSHR_MERGE:          0
cpu0->cpu0_ITLB TRANSLATION  ACCESS:          0 HIT:          0 MISS:          0 MSHR_MERGE:          0
cpu0->cpu0_ITLB PREFETCH REQUESTED:          0 ISSUED:          0 USEFUL:          0 USELESS:          0
cpu0->cpu0_ITLB AVERAGE MISS LATENCY: 755 cycles
cpu0->cpu0_DTLB TOTAL        ACCESS:    4540933 HIT:    4536319 MISS:       4614 MSHR_MERGE:       1833
cpu0->cpu0_DTLB LOAD         ACCESS:    4540933 HIT:    4536319 MISS:       4614 MSHR_MERGE:       1833
cpu0->cpu0_DTLB RFO          ACCESS:          0 HIT:          0 MISS:          0 MSHR_MERGE:          0
cpu0->cpu0_DTLB PREFETCH     ACCESS:          0 HIT:          0 MISS:          0 MSHR_MERGE:          0
cpu0->cpu0_DTLB WRITE        ACCESS:          0 HIT:          0 MISS:          0 MSHR_MERGE:          0
cpu0->cpu0_DTLB TRANSLATION  ACCESS:          0 HIT:          0 MISS:          0 MSHR_MERGE:          0
cpu0->cpu0_DTLB PREFETCH REQUESTED:          0 ISSUED:          0 USEFUL:          0 USELESS:          0
cpu0->cpu0_DTLB AVERAGE MISS LATENCY: 37.08 cycles
cpu0->LLC TOTAL        ACCESS:       7501 HIT:       1330 MISS:       6171 MSHR_MERGE:          0
cpu0->LLC LOAD         ACCESS:       7033 HIT:       1317 MISS:       5716 MSHR_MERGE:          0
cpu0->LLC RFO          ACCESS:        242 HIT:          0 MISS:        242 MSHR_MERGE:          0
cpu0->LLC PREFETCH     ACCESS:          0 HIT:          0 MISS:          0 MSHR_MERGE:          0
cpu0->LLC WRITE        ACCESS:         13 HIT:         13 MISS:          0 MSHR_MERGE:          0
cpu0->LLC TRANSLATION  ACCESS:        213 HIT:          0 MISS:        213 MSHR_MERGE:          0
cpu0->LLC PREFETCH REQUESTED:          0 ISSUED:          0 USEFUL:          0 USELESS:          0
cpu0->LLC AVERAGE MISS LATENCY: 161.6 cycles

DRAM Statistics

Channel 0 RQ ROW_BUFFER_HIT:        183
  ROW_BUFFER_MISS:       5988
  AVG DBUS CONGESTED CYCLE: 2.744
Channel 0 WQ ROW_BUFFER_HIT:          0
  ROW_BUFFER_MISS:          0
  FULL:          0
Channel 0 REFRESHES ISSUED:        733
