[VMEM] WARNING: physical memory size is smaller than virtual memory size.

*** ChampSim Multicore Out-of-Order Simulator ***
Warmup Instructions: 5000000
Simulation Instructions: 25000000
Number of CPUs: 1
Page size: 4096

Off-chip DRAM Size: 16 GiB Channels: 1 Width: 64-bit Data Rate: 3205 MT/s
Warmup finished CPU 0 instructions: 5000000 cycles: 1482126 cumulative IPC: 3.374 (Simulation time: 00 hr 00 min 19 sec)
Warmup complete CPU 0 instructions: 5000000 cycles: 1482126 cumulative IPC: 3.374 (Simulation time: 00 hr 00 min 19 sec)
Heartbeat CPU 0 instructions: 10000000 cycles: 6916029 heartbeat IPC: 1.446 cumulative IPC: 0.9201 (Simulation time: 00 hr 00 min 56 sec)
Heartbeat CPU 0 instructions: 20000000 cycles: 14509393 heartbeat IPC: 1.317 cumulative IPC: 1.151 (Simulation time: 00 hr 06 min 17 sec)
Heartbeat CPU 0 instructions: 30000002 cycles: 25286412 heartbeat IPC: 0.9279 cumulative IPC: 1.05 (Simulation time: 00 hr 07 min 34 sec)
Simulation finished CPU 0 instructions: 25000002 cycles: 23804286 cumulative IPC: 1.05 (Simulation time: 00 hr 07 min 34 sec)
Simulation complete CPU 0 instructions: 25000002 cycles: 23804286 cumulative IPC: 1.05 (Simulation time: 00 hr 07 min 34 sec)

ChampSim completed all CPUs

=== Simulation ===
CPU 0 runs /Users/aleksandrkozlov/Projects/microarch/hw2/traces/627.cam4_s-490B.champsimtrace.xz

Region of Interest Statistics

CPU 0 cumulative IPC: 1.05 instructions: 25000002 cycles: 23804286
CPU 0 Branch Prediction Accuracy: 90.87% MPKI: 8.706 Average ROB Occupancy at Mispredict: 37.98
Branch type MPKI
BRANCH_DIRECT_JUMP: 0.00488
BRANCH_INDIRECT: 0
BRANCH_CONDITIONAL: 8.7
BRANCH_DIRECT_CALL: 0.00032
BRANCH_INDIRECT_CALL: 0
BRANCH_RETURN: 0.00044

cpu0->cpu0_STLB TOTAL        ACCESS:       8024 HIT:       7373 MISS:        651 MSHR_MERGE:          0
cpu0->cpu0_STLB LOAD         ACCESS:       8024 HIT:       7373 MISS:        651 MSHR_MERGE:          0
cpu0->cpu0_STLB RFO          ACCESS:          0 HIT:          0 MISS:          0 MSHR_MERGE:          0
cpu0->cpu0_STLB PREFETCH     ACCESS:          0 HIT:          0 MISS:          0 MSHR_MERGE:          0
cpu0->cpu0_STLB WRITE        ACCESS:          0 HIT:          0 MISS:          0 MSHR_MERGE:          0
cpu0->cpu0_STLB TRANSLATION  ACCESS:          0 HIT:          0 MISS:          0 MSHR_MERGE:          0
cpu0->cpu0_STLB PREFETCH REQUESTED:          0 ISSUED:          0 USEFUL:          0 USELESS:          0
cpu0->cpu0_STLB AVERAGE MISS LATENCY: 717.3 cycles
cpu0->cpu0_L2C TOTAL        ACCESS:     667929 HIT:     356667 MISS:     311262 MSHR_MERGE:          0
cpu0->cpu0_L2C LOAD         ACCESS:     330476 HIT:     151453 MISS:     179023 MSHR_MERGE:          0
cpu0->cpu0_L2C RFO          ACCESS:     136470 HIT:       5473 MISS:     130997 MSHR_MERGE:          0
cpu0->cpu0_L2C PREFETCH     ACCESS:          0 HIT:          0 MISS:          0 MSHR_MERGE:          0
cpu0->cpu0_L2C WRITE        ACCESS:     200162 HIT:     199737 MISS:        425 MSHR_MERGE:          0
cpu0->cpu0_L2C TRANSLATION  ACCESS:        821 HIT:          4 MISS:        817 MSHR_MERGE:          0
cpu0->cpu0_L2C PREFETCH REQUESTED:          0 ISSUED:          0 USEFUL:          0 USELESS:          0
cpu0->cpu0_L2C AVERAGE MISS LATENCY: 126.3 cycles
cpu0->cpu0_L1I TOTAL        ACCESS:    1664336 HIT:    1663413 MISS:        923 MSHR_MERGE:        386
cpu0->cpu0_L1I LOAD         ACCESS:    1664336 HIT:    1663413 MISS:        923 MSHR_MERGE:        386
cpu0->cpu0_L1I RFO          ACCESS:          0 HIT:          0 MISS:          0 MSHR_MERGE:          0
cpu0->cpu0_L1I PREFETCH     ACCESS:          0 HIT:          0 MISS:          0 MSHR_MERGE:          0
cpu0->cpu0_L1I WRITE        ACCESS:          0 HIT:          0 MISS:          0 MSHR_MERGE:          0
cpu0->cpu0_L1I TRANSLATION  ACCESS:          0 HIT:          0 MISS:          0 MSHR_MERGE:          0
cpu0->cpu0_L1I PREFETCH REQUESTED:          0 ISSUED:          0 USEFUL:          0 USELESS:          0
cpu0->cpu0_L1I AVERAGE MISS LATENCY: 233.8 cycles
cpu0->cpu0_L1D TOTAL        ACCESS:    4979555 HIT:    3597381 MISS:    1382174 MSHR_MERGE:     914943
cpu0->cpu0_L1D LOAD         ACCESS:    3321556 HIT:    2609279 MISS:     712277 MSHR_MERGE:     382337
cpu0->cpu0_L1D RFO          ACCESS:          0 HIT:          0 MISS:          0 MSHR_MERGE:          0
cpu0->cpu0_L1D PREFETCH     ACCESS:          0 HIT:          0 MISS:          0 MSHR_MERGE:          0
cpu0->cpu0_L1D WRITE        ACCESS:    1656685 HIT:     987611 MISS:     669074 MSHR_MERGE:     532604
cpu0->cpu0_L1D TRANSLATION  ACCESS:       1314 HIT:        491 MISS:        823 MSHR_MERGE:          2
cpu0->cpu0_L1D PREFETCH REQUESTED:          0 ISSUED:          0 USEFUL:          0 USELESS:          0
cpu0->cpu0_L1D AVERAGE MISS LATENCY: 92.59 cycles
cpu0->cpu0_ITLB TOTAL        ACCESS:    1494106 HIT:    1494093 MISS:         13 MSHR_MERGE:          7
cpu0->cpu0_ITLB LOAD         ACCESS:    1494106 HIT:    1494093 MISS:         13 MSHR_MERGE:          7
cpu0->cpu0_ITLB RFO          ACCESS:          0 HIT:          0 MISS:          0 MSHR_MERGE:          0
cpu0->cpu0_ITLB PREFETCH     ACCESS:          0 HIT:          0 MISS:          0 MSHR_MERGE:          0
cpu0->cpu0_ITLB WRITE        ACCESS:          0 HIT:          0 MISS:          0 MSHR_MERGE:          0
cpu0->cpu0_ITLB TRANSLATION  ACCESS:          0 HIT:          0 MISS:          0 MSHR_MERGE:          0
cpu0->cpu0_ITLB PREFETCH REQUESTED:          0 ISSUED:          0 USEFUL:          0 USELESS:          0
cpu0->cpu0_ITLB AVERAGE MISS LATENCY: 855.2 cycles
cpu0->cpu0_DTLB TOTAL        ACCESS:    4830905 HIT:    4815283 MISS:      15622 MSHR_MERGE:       7604
cpu0->cpu0_DTLB LOAD         ACCESS:    4830905 HIT:    4815283 MISS:      15622 MSHR_MERGE:       7604
cpu0->cpu0_DTLB RFO          ACCESS:          0 HIT:          0 MISS:          0 MSHR_MERGE:          0
cpu0->cpu0_DTLB PREFETCH     ACCESS:          0 HIT:          0 MISS:          0 MSHR_MERGE:          0
cpu0->cpu0_DTLB WRITE        ACCESS:          0 HIT:          0 MISS:          0 MSHR_MERGE:          0
cpu0->cpu0_DTLB TRANSLATION  ACCESS:          0 HIT:          0 MISS:          0 MSHR_MERGE:          0
cpu0->cpu0_DTLB PREFETCH REQUESTED:          0 ISSUED:          0 USEFUL:          0 USELESS:          0
cpu0->cpu0_DTLB AVERAGE MISS LATENCY: 62.69 cycles
cpu0->LLC TOTAL        ACCESS:     477320 HIT:     353503 MISS:     123817 MSHR_MERGE:          0
cpu0->LLC LOAD         ACCESS:     179023 HIT:     128046 MISS:      50977 MSHR_MERGE:          0
cpu0->LLC RFO          ACCESS:     130997 HIT:      58978 MISS:      72019 MSHR_MERGE:          0
cpu0->LLC PREFETCH     ACCESS:          0 HIT:          0 MISS:          0 MSHR_MERGE:          0
cpu0->LLC WRITE        ACCESS:     166483 HIT:     166476 MISS:          7 MSHR_MERGE:          0
cpu0->LLC TRANSLATION  ACCESS:        817 HIT:          3 MISS:        814 MSHR_MERGE:          0
cpu0->LLC PREFETCH REQUESTED:          0 ISSUED:          0 USEFUL:          0 USELESS:          0
cpu0->LLC AVERAGE MISS LATENCY: 278.7 cycles

DRAM Statistics

Channel 0 RQ ROW_BUFFER_HIT:       6801
  ROW_BUFFER_MISS:     116834
  AVG DBUS CONGESTED CYCLE: 9.72
Channel 0 WQ ROW_BUFFER_HIT:      21279
  ROW_BUFFER_MISS:      70689
  FULL:          0
Channel 0 REFRESHES ISSUED:       1984
