[VMEM] WARNING: physical memory size is smaller than virtual memory size.

*** ChampSim Multicore Out-of-Order Simulator ***
Warmup Instructions: 5000000
Simulation Instructions: 25000000
Number of CPUs: 1
Page size: 4096

Off-chip DRAM Size: 16 GiB Channels: 1 Width: 64-bit Data Rate: 3205 MT/s
Warmup finished CPU 0 instructions: 5000001 cycles: 1465622 cumulative IPC: 3.412 (Simulation time: 00 hr 00 min 20 sec)
Warmup complete CPU 0 instructions: 5000001 cycles: 1465622 cumulative IPC: 3.412 (Simulation time: 00 hr 00 min 20 sec)
Heartbeat CPU 0 instructions: 10000002 cycles: 5497547 heartbeat IPC: 1.819 cumulative IPC: 1.24 (Simulation time: 00 hr 00 min 52 sec)
Heartbeat CPU 0 instructions: 20000003 cycles: 13634652 heartbeat IPC: 1.229 cumulative IPC: 1.233 (Simulation time: 00 hr 01 min 52 sec)
Heartbeat CPU 0 instructions: 30000004 cycles: 21775782 heartbeat IPC: 1.228 cumulative IPC: 1.231 (Simulation time: 00 hr 02 min 59 sec)
Simulation finished CPU 0 instructions: 25000003 cycles: 20310160 cumulative IPC: 1.231 (Simulation time: 00 hr 02 min 59 sec)
Simulation complete CPU 0 instructions: 25000003 cycles: 20310160 cumulative IPC: 1.231 (Simulation time: 00 hr 02 min 59 sec)

ChampSim completed all CPUs

=== Simulation ===
CPU 0 runs /Users/aleksandrkozlov/Projects/microarch/hw2/traces/628.pop2_s-17B.champsimtrace.xz

Region of Interest Statistics

CPU 0 cumulative IPC: 1.231 instructions: 25000003 cycles: 20310160
CPU 0 Branch Prediction Accuracy: 96.94% MPKI: 3.495 Average ROB Occupancy at Mispredict: 101.9
Branch type MPKI
BRANCH_DIRECT_JUMP: 0.05124
BRANCH_INDIRECT: 0.0016
BRANCH_CONDITIONAL: 3.442
BRANCH_DIRECT_CALL: 0
BRANCH_INDIRECT_CALL: 0
BRANCH_RETURN: 0

cpu0->cpu0_STLB TOTAL        ACCESS:      21971 HIT:      20741 MISS:       1230 MSHR_MERGE:          0
cpu0->cpu0_STLB LOAD         ACCESS:      21971 HIT:      20741 MISS:       1230 MSHR_MERGE:          0
cpu0->cpu0_STLB RFO          ACCESS:          0 HIT:          0 MISS:          0 MSHR_MERGE:          0
cpu0->cpu0_STLB PREFETCH     ACCESS:          0 HIT:          0 MISS:          0 MSHR_MERGE:          0
cpu0->cpu0_STLB WRITE        ACCESS:          0 HIT:          0 MISS:          0 MSHR_MERGE:          0
cpu0->cpu0_STLB TRANSLATION  ACCESS:          0 HIT:          0 MISS:          0 MSHR_MERGE:          0
cpu0->cpu0_STLB PREFETCH REQUESTED:          0 ISSUED:          0 USEFUL:          0 USELESS:          0
cpu0->cpu0_STLB AVERAGE MISS LATENCY: 745.7 cycles
cpu0->cpu0_L2C TOTAL        ACCESS:     753660 HIT:     527602 MISS:     226058 MSHR_MERGE:          0
cpu0->cpu0_L2C LOAD         ACCESS:     410816 HIT:     238148 MISS:     172668 MSHR_MERGE:          0
cpu0->cpu0_L2C RFO          ACCESS:     136368 HIT:      85491 MISS:      50877 MSHR_MERGE:          0
cpu0->cpu0_L2C PREFETCH     ACCESS:          0 HIT:          0 MISS:          0 MSHR_MERGE:          0
cpu0->cpu0_L2C WRITE        ACCESS:     203877 HIT:     203855 MISS:         22 MSHR_MERGE:          0
cpu0->cpu0_L2C TRANSLATION  ACCESS:       2599 HIT:        108 MISS:       2491 MSHR_MERGE:          0
cpu0->cpu0_L2C PREFETCH REQUESTED:          0 ISSUED:          0 USEFUL:          0 USELESS:          0
cpu0->cpu0_L2C AVERAGE MISS LATENCY: 80.48 cycles
cpu0->cpu0_L1I TOTAL        ACCESS:    1827403 HIT:    1774405 MISS:      52998 MSHR_MERGE:      23457
cpu0->cpu0_L1I LOAD         ACCESS:    1827403 HIT:    1774405 MISS:      52998 MSHR_MERGE:      23457
cpu0->cpu0_L1I RFO          ACCESS:          0 HIT:          0 MISS:          0 MSHR_MERGE:          0
cpu0->cpu0_L1I PREFETCH     ACCESS:          0 HIT:          0 MISS:          0 MSHR_MERGE:          0
cpu0->cpu0_L1I WRITE        ACCESS:          0 HIT:          0 MISS:          0 MSHR_MERGE:          0
cpu0->cpu0_L1I TRANSLATION  ACCESS:          0 HIT:          0 MISS:          0 MSHR_MERGE:          0
cpu0->cpu0_L1I PREFETCH REQUESTED:          0 ISSUED:          0 USEFUL:          0 USELESS:          0
cpu0->cpu0_L1I AVERAGE MISS LATENCY: 22.66 cycles
cpu0->cpu0_L1D TOTAL        ACCESS:    6552742 HIT:    5383297 MISS:    1169445 MSHR_MERGE:     649194
cpu0->cpu0_L1D LOAD         ACCESS:    4657040 HIT:    3938161 MISS:     718879 MSHR_MERGE:     337601
cpu0->cpu0_L1D RFO          ACCESS:          0 HIT:          0 MISS:          0 MSHR_MERGE:          0
cpu0->cpu0_L1D PREFETCH     ACCESS:          0 HIT:          0 MISS:          0 MSHR_MERGE:          0
cpu0->cpu0_L1D WRITE        ACCESS:    1892841 HIT:    1444946 MISS:     447895 MSHR_MERGE:     311521
cpu0->cpu0_L1D TRANSLATION  ACCESS:       2861 HIT:        190 MISS:       2671 MSHR_MERGE:         72
cpu0->cpu0_L1D PREFETCH REQUESTED:          0 ISSUED:          0 USEFUL:          0 USELESS:          0
cpu0->cpu0_L1D AVERAGE MISS LATENCY: 42.57 cycles
cpu0->cpu0_ITLB TOTAL        ACCESS:    1489369 HIT:    1486544 MISS:       2825 MSHR_MERGE:       1586
cpu0->cpu0_ITLB LOAD         ACCESS:    1489369 HIT:    1486544 MISS:       2825 MSHR_MERGE:       1586
cpu0->cpu0_ITLB RFO          ACCESS:          0 HIT:          0 MISS:          0 MSHR_MERGE:          0
cpu0->cpu0_ITLB PREFETCH     ACCESS:          0 HIT:          0 MISS:          0 MSHR_MERGE:          0
cpu0->cpu0_ITLB WRITE        ACCESS:          0 HIT:          0 MISS:          0 MSHR_MERGE:          0
cpu0->cpu0_ITLB TRANSLATION  ACCESS:          0 HIT:          0 MISS:          0 MSHR_MERGE:          0
cpu0->cpu0_ITLB PREFETCH REQUESTED:          0 ISSUED:          0 USEFUL:          0 USELESS:          0
cpu0->cpu0_ITLB AVERAGE MISS LATENCY: 5.006 cycles
cpu0->cpu0_DTLB TOTAL        ACCESS:    6300188 HIT:    6265365 MISS:      34823 MSHR_MERGE:      14091
cpu0->cpu0_DTLB LOAD         ACCESS:    6300188 HIT:    6265365 MISS:      34823 MSHR_MERGE:      14091
cpu0->cpu0_DTLB RFO          ACCESS:          0 HIT:          0 MISS:          0 MSHR_MERGE:          0
cpu0->cpu0_DTLB PREFETCH     ACCESS:          0 HIT:          0 MISS:          0 MSHR_MERGE:          0
cpu0->cpu0_DTLB WRITE        ACCESS:          0 HIT:          0 MISS:          0 MSHR_MERGE:          0
cpu0->cpu0_DTLB TRANSLATION  ACCESS:          0 HIT:          0 MISS:          0 MSHR_MERGE:          0
cpu0->cpu0_DTLB PREFETCH REQUESTED:          0 ISSUED:          0 USEFUL:          0 USELESS:          0
cpu0->cpu0_DTLB AVERAGE MISS LATENCY: 49.3 cycles
cpu0->LLC TOTAL        ACCESS:     311774 HIT:     233535 MISS:      78239 MSHR_MERGE:          0
cpu0->LLC LOAD         ACCESS:     172668 HIT:     102550 MISS:      70118 MSHR_MERGE:          0
cpu0->LLC RFO          ACCESS:      50877 HIT:      45169 MISS:       5708 MSHR_MERGE:          0
cpu0->LLC PREFETCH     ACCESS:          0 HIT:          0 MISS:          0 MSHR_MERGE:          0
cpu0->LLC WRITE        ACCESS:      85738 HIT:      85094 MISS:        644 MSHR_MERGE:          0
cpu0->LLC TRANSLATION  ACCESS:       2491 HIT:        722 MISS:       1769 MSHR_MERGE:          0
cpu0->LLC PREFETCH REQUESTED:          0 ISSUED:          0 USEFUL:          0 USELESS:          0
cpu0->LLC AVERAGE MISS LATENCY: 188.2 cycles

DRAM Statistics

Channel 0 RQ ROW_BUFFER_HIT:       2164
  ROW_BUFFER_MISS:      75430
  AVG DBUS CONGESTED CYCLE: 15.65
Channel 0 WQ ROW_BUFFER_HIT:       5778
  ROW_BUFFER_MISS:      14865
  FULL:          0
Channel 0 REFRESHES ISSUED:       1692
