[VMEM] WARNING: physical memory size is smaller than virtual memory size.

*** ChampSim Multicore Out-of-Order Simulator ***
Warmup Instructions: 5000000
Simulation Instructions: 25000000
Number of CPUs: 1
Page size: 4096

Off-chip DRAM Size: 16 GiB Channels: 1 Width: 64-bit Data Rate: 3205 MT/s
Warmup finished CPU 0 instructions: 5000002 cycles: 1766106 cumulative IPC: 2.831 (Simulation time: 00 hr 00 min 24 sec)
Warmup complete CPU 0 instructions: 5000002 cycles: 1766106 cumulative IPC: 2.831 (Simulation time: 00 hr 00 min 24 sec)
Heartbeat CPU 0 instructions: 10000001 cycles: 7542155 heartbeat IPC: 1.326 cumulative IPC: 0.8656 (Simulation time: 00 hr 00 min 58 sec)
Heartbeat CPU 0 instructions: 20000003 cycles: 19520242 heartbeat IPC: 0.8349 cumulative IPC: 0.8449 (Simulation time: 00 hr 02 min 12 sec)
Heartbeat CPU 0 instructions: 30000005 cycles: 31221864 heartbeat IPC: 0.8546 cumulative IPC: 0.8487 (Simulation time: 00 hr 16 min 59 sec)
Simulation finished CPU 0 instructions: 25000003 cycles: 29455758 cumulative IPC: 0.8487 (Simulation time: 00 hr 16 min 59 sec)
Simulation complete CPU 0 instructions: 25000003 cycles: 29455758 cumulative IPC: 0.8487 (Simulation time: 00 hr 16 min 59 sec)

ChampSim completed all CPUs

=== Simulation ===
CPU 0 runs /Users/aleksandrkozlov/Projects/microarch/hw2/traces/631.deepsjeng_s-928B.champsimtrace.xz

Region of Interest Statistics

CPU 0 cumulative IPC: 0.8487 instructions: 25000003 cycles: 29455758
CPU 0 Branch Prediction Accuracy: 83% MPKI: 25.47 Average ROB Occupancy at Mispredict: 16.11
Branch type MPKI
BRANCH_DIRECT_JUMP: 0.02156
BRANCH_INDIRECT: 0.00908
BRANCH_CONDITIONAL: 24.99
BRANCH_DIRECT_CALL: 0.02132
BRANCH_INDIRECT_CALL: 0
BRANCH_RETURN: 0.432

cpu0->cpu0_STLB TOTAL        ACCESS:       6382 HIT:       2002 MISS:       4380 MSHR_MERGE:          0
cpu0->cpu0_STLB LOAD         ACCESS:       6382 HIT:       2002 MISS:       4380 MSHR_MERGE:          0
cpu0->cpu0_STLB RFO          ACCESS:          0 HIT:          0 MISS:          0 MSHR_MERGE:          0
cpu0->cpu0_STLB PREFETCH     ACCESS:          0 HIT:          0 MISS:          0 MSHR_MERGE:          0
cpu0->cpu0_STLB WRITE        ACCESS:          0 HIT:          0 MISS:          0 MSHR_MERGE:          0
cpu0->cpu0_STLB TRANSLATION  ACCESS:          0 HIT:          0 MISS:          0 MSHR_MERGE:          0
cpu0->cpu0_STLB PREFETCH REQUESTED:          0 ISSUED:          0 USEFUL:          0 USELESS:          0
cpu0->cpu0_STLB AVERAGE MISS LATENCY: 928.9 cycles
cpu0->cpu0_L2C TOTAL        ACCESS:      70914 HIT:      51453 MISS:      19461 MSHR_MERGE:          0
cpu0->cpu0_L2C LOAD         ACCESS:      36490 HIT:      29023 MISS:       7467 MSHR_MERGE:          0
cpu0->cpu0_L2C RFO          ACCESS:       7654 HIT:       6898 MISS:        756 MSHR_MERGE:          0
cpu0->cpu0_L2C PREFETCH     ACCESS:          0 HIT:          0 MISS:          0 MSHR_MERGE:          0
cpu0->cpu0_L2C WRITE        ACCESS:      13940 HIT:      13908 MISS:         32 MSHR_MERGE:          0
cpu0->cpu0_L2C TRANSLATION  ACCESS:      12830 HIT:       1624 MISS:      11206 MSHR_MERGE:          0
cpu0->cpu0_L2C PREFETCH REQUESTED:          0 ISSUED:          0 USEFUL:          0 USELESS:          0
cpu0->cpu0_L2C AVERAGE MISS LATENCY: 159.7 cycles
cpu0->cpu0_L1I TOTAL        ACCESS:    2913201 HIT:    2887551 MISS:      25650 MSHR_MERGE:       4229
cpu0->cpu0_L1I LOAD         ACCESS:    2913201 HIT:    2887551 MISS:      25650 MSHR_MERGE:       4229
cpu0->cpu0_L1I RFO          ACCESS:          0 HIT:          0 MISS:          0 MSHR_MERGE:          0
cpu0->cpu0_L1I PREFETCH     ACCESS:          0 HIT:          0 MISS:          0 MSHR_MERGE:          0
cpu0->cpu0_L1I WRITE        ACCESS:          0 HIT:          0 MISS:          0 MSHR_MERGE:          0
cpu0->cpu0_L1I TRANSLATION  ACCESS:          0 HIT:          0 MISS:          0 MSHR_MERGE:          0
cpu0->cpu0_L1I PREFETCH REQUESTED:          0 ISSUED:          0 USEFUL:          0 USELESS:          0
cpu0->cpu0_L1I AVERAGE MISS LATENCY: 7.205 cycles
cpu0->cpu0_L1D TOTAL        ACCESS:    7936813 HIT:    7880953 MISS:      55860 MSHR_MERGE:      20305
cpu0->cpu0_L1D LOAD         ACCESS:    4887133 HIT:    4863674 MISS:      23459 MSHR_MERGE:       8388
cpu0->cpu0_L1D RFO          ACCESS:          0 HIT:          0 MISS:          0 MSHR_MERGE:          0
cpu0->cpu0_L1D PREFETCH     ACCESS:          0 HIT:          0 MISS:          0 MSHR_MERGE:          0
cpu0->cpu0_L1D WRITE        ACCESS:    3036487 HIT:    3016950 MISS:      19537 MSHR_MERGE:      11883
cpu0->cpu0_L1D TRANSLATION  ACCESS:      13193 HIT:        329 MISS:      12864 MSHR_MERGE:         34
cpu0->cpu0_L1D PREFETCH REQUESTED:          0 ISSUED:          0 USEFUL:          0 USELESS:          0
cpu0->cpu0_L1D AVERAGE MISS LATENCY: 95.87 cycles
cpu0->cpu0_ITLB TOTAL        ACCESS:    2479479 HIT:    2479479 MISS:          0 MSHR_MERGE:          0
cpu0->cpu0_ITLB LOAD         ACCESS:    2479479 HIT:    2479479 MISS:          0 MSHR_MERGE:          0
cpu0->cpu0_ITLB RFO          ACCESS:          0 HIT:          0 MISS:          0 MSHR_MERGE:          0
cpu0->cpu0_ITLB PREFETCH     ACCESS:          0 HIT:          0 MISS:          0 MSHR_MERGE:          0
cpu0->cpu0_ITLB WRITE        ACCESS:          0 HIT:          0 MISS:          0 MSHR_MERGE:          0
cpu0->cpu0_ITLB TRANSLATION  ACCESS:          0 HIT:          0 MISS:          0 MSHR_MERGE:          0
cpu0->cpu0_ITLB PREFETCH REQUESTED:          0 ISSUED:          0 USEFUL:          0 USELESS:          0
cpu0->cpu0_ITLB AVERAGE MISS LATENCY: - cycles
cpu0->cpu0_DTLB TOTAL        ACCESS:    7527741 HIT:    7512028 MISS:      15713 MSHR_MERGE:       9331
cpu0->cpu0_DTLB LOAD         ACCESS:    7527741 HIT:    7512028 MISS:      15713 MSHR_MERGE:       9331
cpu0->cpu0_DTLB RFO          ACCESS:          0 HIT:          0 MISS:          0 MSHR_MERGE:          0
cpu0->cpu0_DTLB PREFETCH     ACCESS:          0 HIT:          0 MISS:          0 MSHR_MERGE:          0
cpu0->cpu0_DTLB WRITE        ACCESS:          0 HIT:          0 MISS:          0 MSHR_MERGE:          0
cpu0->cpu0_DTLB TRANSLATION  ACCESS:          0 HIT:          0 MISS:          0 MSHR_MERGE:          0
cpu0->cpu0_DTLB PREFETCH REQUESTED:          0 ISSUED:          0 USEFUL:          0 USELESS:          0
cpu0->cpu0_DTLB AVERAGE MISS LATENCY: 643.2 cycles
cpu0->LLC TOTAL        ACCESS:      24195 HIT:       6634 MISS:      17561 MSHR_MERGE:          0
cpu0->LLC LOAD         ACCESS:       7467 HIT:        496 MISS:       6971 MSHR_MERGE:          0
cpu0->LLC RFO          ACCESS:        756 HIT:        304 MISS:        452 MSHR_MERGE:          0
cpu0->LLC PREFETCH     ACCESS:          0 HIT:          0 MISS:          0 MSHR_MERGE:          0
cpu0->LLC WRITE        ACCESS:       4766 HIT:       4763 MISS:          3 MSHR_MERGE:          0
cpu0->LLC TRANSLATION  ACCESS:      11206 HIT:       1071 MISS:      10135 MSHR_MERGE:          0
cpu0->LLC PREFETCH REQUESTED:          0 ISSUED:          0 USEFUL:          0 USELESS:          0
cpu0->LLC AVERAGE MISS LATENCY: 159.4 cycles

DRAM Statistics

Channel 0 RQ ROW_BUFFER_HIT:         30
  ROW_BUFFER_MISS:      17528
  AVG DBUS CONGESTED CYCLE: 3.121
Channel 0 WQ ROW_BUFFER_HIT:          0
  ROW_BUFFER_MISS:        105
  FULL:          0
Channel 0 REFRESHES ISSUED:       2454
