[VMEM] WARNING: physical memory size is smaller than virtual memory size.

*** ChampSim Multicore Out-of-Order Simulator ***
Warmup Instructions: 5000000
Simulation Instructions: 25000000
Number of CPUs: 1
Page size: 4096

Off-chip DRAM Size: 16 GiB Channels: 1 Width: 64-bit Data Rate: 3205 MT/s
Warmup finished CPU 0 instructions: 5000002 cycles: 1300141 cumulative IPC: 3.846 (Simulation time: 00 hr 00 min 17 sec)
Warmup complete CPU 0 instructions: 5000002 cycles: 1300141 cumulative IPC: 3.846 (Simulation time: 00 hr 00 min 17 sec)
Heartbeat CPU 0 instructions: 10000001 cycles: 4125809 heartbeat IPC: 2.424 cumulative IPC: 1.769 (Simulation time: 00 hr 14 min 12 sec)
Heartbeat CPU 0 instructions: 20000001 cycles: 9970283 heartbeat IPC: 1.711 cumulative IPC: 1.73 (Simulation time: 00 hr 14 min 57 sec)
Heartbeat CPU 0 instructions: 30000001 cycles: 15794438 heartbeat IPC: 1.717 cumulative IPC: 1.725 (Simulation time: 00 hr 26 min 59 sec)
Simulation finished CPU 0 instructions: 25000002 cycles: 14494298 cumulative IPC: 1.725 (Simulation time: 00 hr 26 min 59 sec)
Simulation complete CPU 0 instructions: 25000002 cycles: 14494298 cumulative IPC: 1.725 (Simulation time: 00 hr 26 min 59 sec)

ChampSim completed all CPUs

=== Simulation ===
CPU 0 runs /Users/aleksandrkozlov/Projects/microarch/hw2/traces/644.nab_s-12459B.champsimtrace.xz

Region of Interest Statistics

CPU 0 cumulative IPC: 1.725 instructions: 25000002 cycles: 14494298
CPU 0 Branch Prediction Accuracy: 94.46% MPKI: 7.961 Average ROB Occupancy at Mispredict: 64.07
Branch type MPKI
BRANCH_DIRECT_JUMP: 0.2805
BRANCH_INDIRECT: 0
BRANCH_CONDITIONAL: 7.681
BRANCH_DIRECT_CALL: 0
BRANCH_INDIRECT_CALL: 0
BRANCH_RETURN: 0

cpu0->cpu0_STLB TOTAL        ACCESS:       5229 HIT:       5149 MISS:         80 MSHR_MERGE:          0
cpu0->cpu0_STLB LOAD         ACCESS:       5229 HIT:       5149 MISS:         80 MSHR_MERGE:          0
cpu0->cpu0_STLB RFO          ACCESS:          0 HIT:          0 MISS:          0 MSHR_MERGE:          0
cpu0->cpu0_STLB PREFETCH     ACCESS:          0 HIT:          0 MISS:          0 MSHR_MERGE:          0
cpu0->cpu0_STLB WRITE        ACCESS:          0 HIT:          0 MISS:          0 MSHR_MERGE:          0
cpu0->cpu0_STLB TRANSLATION  ACCESS:          0 HIT:          0 MISS:          0 MSHR_MERGE:          0
cpu0->cpu0_STLB PREFETCH REQUESTED:          0 ISSUED:          0 USEFUL:          0 USELESS:          0
cpu0->cpu0_STLB AVERAGE MISS LATENCY: 690.5 cycles
cpu0->cpu0_L2C TOTAL        ACCESS:     159873 HIT:     135901 MISS:      23972 MSHR_MERGE:          0
cpu0->cpu0_L2C LOAD         ACCESS:     139517 HIT:     119535 MISS:      19982 MSHR_MERGE:          0
cpu0->cpu0_L2C RFO          ACCESS:       8159 HIT:       4295 MISS:       3864 MSHR_MERGE:          0
cpu0->cpu0_L2C PREFETCH     ACCESS:          0 HIT:          0 MISS:          0 MSHR_MERGE:          0
cpu0->cpu0_L2C WRITE        ACCESS:      12072 HIT:      12057 MISS:         15 MSHR_MERGE:          0
cpu0->cpu0_L2C TRANSLATION  ACCESS:        125 HIT:         14 MISS:        111 MSHR_MERGE:          0
cpu0->cpu0_L2C PREFETCH REQUESTED:          0 ISSUED:          0 USEFUL:          0 USELESS:          0
cpu0->cpu0_L2C AVERAGE MISS LATENCY: 51.64 cycles
cpu0->cpu0_L1I TOTAL        ACCESS:     111759 HIT:     111759 MISS:          0 MSHR_MERGE:          0
cpu0->cpu0_L1I LOAD         ACCESS:     111759 HIT:     111759 MISS:          0 MSHR_MERGE:          0
cpu0->cpu0_L1I RFO          ACCESS:          0 HIT:          0 MISS:          0 MSHR_MERGE:          0
cpu0->cpu0_L1I PREFETCH     ACCESS:          0 HIT:          0 MISS:          0 MSHR_MERGE:          0
cpu0->cpu0_L1I WRITE        ACCESS:          0 HIT:          0 MISS:          0 MSHR_MERGE:          0
cpu0->cpu0_L1I TRANSLATION  ACCESS:          0 HIT:          0 MISS:          0 MSHR_MERGE:          0
cpu0->cpu0_L1I PREFETCH REQUESTED:          0 ISSUED:          0 USEFUL:          0 USELESS:          0
cpu0->cpu0_L1I AVERAGE MISS LATENCY: - cycles
cpu0->cpu0_L1D TOTAL        ACCESS:    6613395 HIT:    6367004 MISS:     246391 MSHR_MERGE:      98590
cpu0->cpu0_L1D LOAD         ACCESS:    4150657 HIT:    3971521 MISS:     179136 MSHR_MERGE:      39619
cpu0->cpu0_L1D RFO          ACCESS:          0 HIT:          0 MISS:          0 MSHR_MERGE:          0
cpu0->cpu0_L1D PREFETCH     ACCESS:          0 HIT:          0 MISS:          0 MSHR_MERGE:          0
cpu0->cpu0_L1D WRITE        ACCESS:    2462578 HIT:    2395451 MISS:      67127 MSHR_MERGE:      58968
cpu0->cpu0_L1D TRANSLATION  ACCESS:        160 HIT:         32 MISS:        128 MSHR_MERGE:          3
cpu0->cpu0_L1D PREFETCH REQUESTED:          0 ISSUED:          0 USEFUL:          0 USELESS:          0
cpu0->cpu0_L1D AVERAGE MISS LATENCY: 16.55 cycles
cpu0->cpu0_ITLB TOTAL        ACCESS:      96304 HIT:      96304 MISS:          0 MSHR_MERGE:          0
cpu0->cpu0_ITLB LOAD         ACCESS:      96304 HIT:      96304 MISS:          0 MSHR_MERGE:          0
cpu0->cpu0_ITLB RFO          ACCESS:          0 HIT:          0 MISS:          0 MSHR_MERGE:          0
cpu0->cpu0_ITLB PREFETCH     ACCESS:          0 HIT:          0 MISS:          0 MSHR_MERGE:          0
cpu0->cpu0_ITLB WRITE        ACCESS:          0 HIT:          0 MISS:          0 MSHR_MERGE:          0
cpu0->cpu0_ITLB TRANSLATION  ACCESS:          0 HIT:          0 MISS:          0 MSHR_MERGE:          0
cpu0->cpu0_ITLB PREFETCH REQUESTED:          0 ISSUED:          0 USEFUL:          0 USELESS:          0
cpu0->cpu0_ITLB AVERAGE MISS LATENCY: - cycles
cpu0->cpu0_DTLB TOTAL        ACCESS:    6307010 HIT:    6300077 MISS:       6933 MSHR_MERGE:       1704
cpu0->cpu0_DTLB LOAD         ACCESS:    6307010 HIT:    6300077 MISS:       6933 MSHR_MERGE:       1704
cpu0->cpu0_DTLB RFO          ACCESS:          0 HIT:          0 MISS:          0 MSHR_MERGE:          0
cpu0->cpu0_DTLB PREFETCH     ACCESS:          0 HIT:          0 MISS:          0 MSHR_MERGE:          0
cpu0->cpu0_DTLB WRITE        ACCESS:          0 HIT:          0 MISS:          0 MSHR_MERGE:          0
cpu0->cpu0_DTLB TRANSLATION  ACCESS:          0 HIT:          0 MISS:          0 MSHR_MERGE:          0
cpu0->cpu0_DTLB PREFETCH REQUESTED:          0 ISSUED:          0 USEFUL:          0 USELESS:          0
cpu0->cpu0_DTLB AVERAGE MISS LATENCY: 15.58 cycles
cpu0->LLC TOTAL        ACCESS:      26724 HIT:      21335 MISS:       5389 MSHR_MERGE:          0
cpu0->LLC LOAD         ACCESS:      19982 HIT:      18533 MISS:       1449 MSHR_MERGE:          0
cpu0->LLC RFO          ACCESS:       3864 HIT:         31 MISS:       3833 MSHR_MERGE:          0
cpu0->LLC PREFETCH     ACCESS:          0 HIT:          0 MISS:          0 MSHR_MERGE:          0
cpu0->LLC WRITE        ACCESS:       2767 HIT:       2767 MISS:          0 MSHR_MERGE:          0
cpu0->LLC TRANSLATION  ACCESS:        111 HIT:          4 MISS:        107 MSHR_MERGE:          0
cpu0->LLC PREFETCH REQUESTED:          0 ISSUED:          0 USEFUL:          0 USELESS:          0
cpu0->LLC AVERAGE MISS LATENCY: 162 cycles

DRAM Statistics

Channel 0 RQ ROW_BUFFER_HIT:       1364
  ROW_BUFFER_MISS:       4025
  AVG DBUS CONGESTED CYCLE: 2.713
Channel 0 WQ ROW_BUFFER_HIT:          0
  ROW_BUFFER_MISS:          0
  FULL:          0
Channel 0 REFRESHES ISSUED:       1208
