[VMEM] WARNING: physical memory size is smaller than virtual memory size.

*** ChampSim Multicore Out-of-Order Simulator ***
Warmup Instructions: 5000000
Simulation Instructions: 25000000
Number of CPUs: 1
Page size: 4096

Off-chip DRAM Size: 16 GiB Channels: 1 Width: 64-bit Data Rate: 3205 MT/s
Warmup finished CPU 0 instructions: 5000000 cycles: 1263654 cumulative IPC: 3.957 (Simulation time: 00 hr 13 min 51 sec)
Warmup complete CPU 0 instructions: 5000000 cycles: 1263654 cumulative IPC: 3.957 (Simulation time: 00 hr 13 min 51 sec)
Heartbeat CPU 0 instructions: 10000003 cycles: 4966077 heartbeat IPC: 2.014 cumulative IPC: 1.35 (Simulation time: 00 hr 14 min 18 sec)
Heartbeat CPU 0 instructions: 20000006 cycles: 12044934 heartbeat IPC: 1.413 cumulative IPC: 1.391 (Simulation time: 00 hr 26 min 25 sec)
Simulation finished CPU 0 instructions: 25000000 cycles: 17634766 cumulative IPC: 1.418 (Simulation time: 00 hr 27 min 04 sec)
Simulation complete CPU 0 instructions: 25000000 cycles: 17634766 cumulative IPC: 1.418 (Simulation time: 00 hr 27 min 04 sec)

ChampSim completed all CPUs

=== Simulation ===
CPU 0 runs /Users/aleksandrkozlov/Projects/microarch/hw2/traces/648.exchange2_s-387B.champsimtrace.xz

Region of Interest Statistics

CPU 0 cumulative IPC: 1.418 instructions: 25000000 cycles: 17634766
CPU 0 Branch Prediction Accuracy: 89.88% MPKI: 16.53 Average ROB Occupancy at Mispredict: 25.22
Branch type MPKI
BRANCH_DIRECT_JUMP: 0.4544
BRANCH_INDIRECT: 0
BRANCH_CONDITIONAL: 16.07
BRANCH_DIRECT_CALL: 0.00332
BRANCH_INDIRECT_CALL: 0
BRANCH_RETURN: 0.00332

cpu0->cpu0_STLB TOTAL        ACCESS:         37 HIT:          0 MISS:         37 MSHR_MERGE:          0
cpu0->cpu0_STLB LOAD         ACCESS:         37 HIT:          0 MISS:         37 MSHR_MERGE:          0
cpu0->cpu0_STLB RFO          ACCESS:          0 HIT:          0 MISS:          0 MSHR_MERGE:          0
cpu0->cpu0_STLB PREFETCH     ACCESS:          0 HIT:          0 MISS:          0 MSHR_MERGE:          0
cpu0->cpu0_STLB WRITE        ACCESS:          0 HIT:          0 MISS:          0 MSHR_MERGE:          0
cpu0->cpu0_STLB TRANSLATION  ACCESS:          0 HIT:          0 MISS:          0 MSHR_MERGE:          0
cpu0->cpu0_STLB PREFETCH REQUESTED:          0 ISSUED:          0 USEFUL:          0 USELESS:          0
cpu0->cpu0_STLB AVERAGE MISS LATENCY: 720.5 cycles
cpu0->cpu0_L2C TOTAL        ACCESS:       9490 HIT:       8312 MISS:       1178 MSHR_MERGE:          0
cpu0->cpu0_L2C LOAD         ACCESS:       9317 HIT:       8296 MISS:       1021 MSHR_MERGE:          0
cpu0->cpu0_L2C RFO          ACCESS:        108 HIT:          8 MISS:        100 MSHR_MERGE:          0
cpu0->cpu0_L2C PREFETCH     ACCESS:          0 HIT:          0 MISS:          0 MSHR_MERGE:          0
cpu0->cpu0_L2C WRITE        ACCESS:          8 HIT:          8 MISS:          0 MSHR_MERGE:          0
cpu0->cpu0_L2C TRANSLATION  ACCESS:         57 HIT:          0 MISS:         57 MSHR_MERGE:          0
cpu0->cpu0_L2C PREFETCH REQUESTED:          0 ISSUED:          0 USEFUL:          0 USELESS:          0
cpu0->cpu0_L2C AVERAGE MISS LATENCY: 181.8 cycles
cpu0->cpu0_L1I TOTAL        ACCESS:     980201 HIT:     965615 MISS:      14586 MSHR_MERGE:       5310
cpu0->cpu0_L1I LOAD         ACCESS:     980201 HIT:     965615 MISS:      14586 MSHR_MERGE:       5310
cpu0->cpu0_L1I RFO          ACCESS:          0 HIT:          0 MISS:          0 MSHR_MERGE:          0
cpu0->cpu0_L1I PREFETCH     ACCESS:          0 HIT:          0 MISS:          0 MSHR_MERGE:          0
cpu0->cpu0_L1I WRITE        ACCESS:          0 HIT:          0 MISS:          0 MSHR_MERGE:          0
cpu0->cpu0_L1I TRANSLATION  ACCESS:          0 HIT:          0 MISS:          0 MSHR_MERGE:          0
cpu0->cpu0_L1I PREFETCH REQUESTED:          0 ISSUED:          0 USEFUL:          0 USELESS:          0
cpu0->cpu0_L1I AVERAGE MISS LATENCY: 26.15 cycles
cpu0->cpu0_L1D TOTAL        ACCESS:    7173132 HIT:    7172140 MISS:        992 MSHR_MERGE:        786
cpu0->cpu0_L1D LOAD         ACCESS:    3991766 HIT:    3991666 MISS:        100 MSHR_MERGE:         59
cpu0->cpu0_L1D RFO          ACCESS:          0 HIT:          0 MISS:          0 MSHR_MERGE:          0
cpu0->cpu0_L1D PREFETCH     ACCESS:          0 HIT:          0 MISS:          0 MSHR_MERGE:          0
cpu0->cpu0_L1D WRITE        ACCESS:    3181291 HIT:    3180456 MISS:        835 MSHR_MERGE:        727
cpu0->cpu0_L1D TRANSLATION  ACCESS:         75 HIT:         18 MISS:         57 MSHR_MERGE:          0
cpu0->cpu0_L1D PREFETCH REQUESTED:          0 ISSUED:          0 USEFUL:          0 USELESS:          0
cpu0->cpu0_L1D AVERAGE MISS LATENCY: 192.2 cycles
cpu0->cpu0_ITLB TOTAL        ACCESS:     781483 HIT:     781433 MISS:         50 MSHR_MERGE:         26
cpu0->cpu0_ITLB LOAD         ACCESS:     781483 HIT:     781433 MISS:         50 MSHR_MERGE:         26
cpu0->cpu0_ITLB RFO          ACCESS:          0 HIT:          0 MISS:          0 MSHR_MERGE:          0
cpu0->cpu0_ITLB PREFETCH     ACCESS:          0 HIT:          0 MISS:          0 MSHR_MERGE:          0
cpu0->cpu0_ITLB WRITE        ACCESS:          0 HIT:          0 MISS:          0 MSHR_MERGE:          0
cpu0->cpu0_ITLB TRANSLATION  ACCESS:          0 HIT:          0 MISS:          0 MSHR_MERGE:          0
cpu0->cpu0_ITLB PREFETCH REQUESTED:          0 ISSUED:          0 USEFUL:          0 USELESS:          0
cpu0->cpu0_ITLB AVERAGE MISS LATENCY: 705.8 cycles
cpu0->cpu0_DTLB TOTAL        ACCESS:    6597474 HIT:    6597427 MISS:         47 MSHR_MERGE:         34
cpu0->cpu0_DTLB LOAD         ACCESS:    6597474 HIT:    6597427 MISS:         47 MSHR_MERGE:         34
cpu0->cpu0_DTLB RFO          ACCESS:          0 HIT:          0 MISS:          0 MSHR_MERGE:          0
cpu0->cpu0_DTLB PREFETCH     ACCESS:          0 HIT:          0 MISS:          0 MSHR_MERGE:          0
cpu0->cpu0_DTLB WRITE        ACCESS:          0 HIT:          0 MISS:          0 MSHR_MERGE:          0
cpu0->cpu0_DTLB TRANSLATION  ACCESS:          0 HIT:          0 MISS:          0 MSHR_MERGE:          0
cpu0->cpu0_DTLB PREFETCH REQUESTED:          0 ISSUED:          0 USEFUL:          0 USELESS:          0
cpu0->cpu0_DTLB AVERAGE MISS LATENCY: 764.8 cycles
cpu0->LLC TOTAL        ACCESS:       1178 HIT:          0 MISS:       1178 MSHR_MERGE:          0
cpu0->LLC LOAD         ACCESS:       1021 HIT:          0 MISS:       1021 MSHR_MERGE:          0
cpu0->LLC RFO          ACCESS:        100 HIT:          0 MISS:        100 MSHR_MERGE:          0
cpu0->LLC PREFETCH     ACCESS:          0 HIT:          0 MISS:          0 MSHR_MERGE:          0
cpu0->LLC WRITE        ACCESS:          0 HIT:          0 MISS:          0 MSHR_MERGE:          0
cpu0->LLC TRANSLATION  ACCESS:         57 HIT:          0 MISS:         57 MSHR_MERGE:          0
cpu0->LLC PREFETCH REQUESTED:          0 ISSUED:          0 USEFUL:          0 USELESS:          0
cpu0->LLC AVERAGE MISS LATENCY: 165.8 cycles

DRAM Statistics

Channel 0 RQ ROW_BUFFER_HIT:         57
  ROW_BUFFER_MISS:       1121
  AVG DBUS CONGESTED CYCLE: 2.961
Channel 0 WQ ROW_BUFFER_HIT:          0
  ROW_BUFFER_MISS:          0
  FULL:          0
Channel 0 REFRESHES ISSUED:       1469
