[VMEM] WARNING: physical memory size is smaller than virtual memory size.

*** ChampSim Multicore Out-of-Order Simulator ***
Warmup Instructions: 5000000
Simulation Instructions: 25000000
Number of CPUs: 1
Page size: 4096

Off-chip DRAM Size: 16 GiB Channels: 1 Width: 64-bit Data Rate: 3205 MT/s
Warmup finished CPU 0 instructions: 5000003 cycles: 1276653 cumulative IPC: 3.916 (Simulation time: 00 hr 00 min 17 sec)
Warmup complete CPU 0 instructions: 5000003 cycles: 1276653 cumulative IPC: 3.916 (Simulation time: 00 hr 00 min 17 sec)
Heartbeat CPU 0 instructions: 10000003 cycles: 5030041 heartbeat IPC: 1.988 cumulative IPC: 1.332 (Simulation time: 00 hr 11 min 58 sec)
Heartbeat CPU 0 instructions: 20000003 cycles: 12343486 heartbeat IPC: 1.367 cumulative IPC: 1.355 (Simulation time: 00 hr 12 min 38 sec)
Heartbeat CPU 0 instructions: 30000003 cycles: 19869970 heartbeat IPC: 1.329 cumulative IPC: 1.345 (Simulation time: 00 hr 13 min 16 sec)
Simulation finished CPU 0 instructions: 25000000 cycles: 18593317 cumulative IPC: 1.345 (Simulation time: 00 hr 13 min 16 sec)
Simulation complete CPU 0 instructions: 25000000 cycles: 18593317 cumulative IPC: 1.345 (Simulation time: 00 hr 13 min 16 sec)

ChampSim completed all CPUs

=== Simulation ===
CPU 0 runs /Users/aleksandrkozlov/Projects/microarch/hw2/traces/657.xz_s-4994B.champsimtrace.xz

Region of Interest Statistics

CPU 0 cumulative IPC: 1.345 instructions: 25000000 cycles: 18593317
CPU 0 Branch Prediction Accuracy: 84.3% MPKI: 16.49 Average ROB Occupancy at Mispredict: 26.64
Branch type MPKI
BRANCH_DIRECT_JUMP: 0.0002
BRANCH_INDIRECT: 0.00152
BRANCH_CONDITIONAL: 16.48
BRANCH_DIRECT_CALL: 0
BRANCH_INDIRECT_CALL: 0
BRANCH_RETURN: 8e-05

cpu0->cpu0_STLB TOTAL        ACCESS:         85 HIT:         12 MISS:         73 MSHR_MERGE:          0
cpu0->cpu0_STLB LOAD         ACCESS:         85 HIT:         12 MISS:         73 MSHR_MERGE:          0
cpu0->cpu0_STLB RFO          ACCESS:          0 HIT:          0 MISS:          0 MSHR_MERGE:          0
cpu0->cpu0_STLB PREFETCH     ACCESS:          0 HIT:          0 MISS:          0 MSHR_MERGE:          0
cpu0->cpu0_STLB WRITE        ACCESS:          0 HIT:          0 MISS:          0 MSHR_MERGE:          0
cpu0->cpu0_STLB TRANSLATION  ACCESS:          0 HIT:          0 MISS:          0 MSHR_MERGE:          0
cpu0->cpu0_STLB PREFETCH REQUESTED:          0 ISSUED:          0 USEFUL:          0 USELESS:          0
cpu0->cpu0_STLB AVERAGE MISS LATENCY: 670.7 cycles
cpu0->cpu0_L2C TOTAL        ACCESS:      13595 HIT:       9362 MISS:       4233 MSHR_MERGE:          0
cpu0->cpu0_L2C LOAD         ACCESS:       3813 HIT:       2524 MISS:       1289 MSHR_MERGE:          0
cpu0->cpu0_L2C RFO          ACCESS:       4136 HIT:       1287 MISS:       2849 MSHR_MERGE:          0
cpu0->cpu0_L2C PREFETCH     ACCESS:          0 HIT:          0 MISS:          0 MSHR_MERGE:          0
cpu0->cpu0_L2C WRITE        ACCESS:       5525 HIT:       5525 MISS:          0 MSHR_MERGE:          0
cpu0->cpu0_L2C TRANSLATION  ACCESS:        121 HIT:         26 MISS:         95 MSHR_MERGE:          0
cpu0->cpu0_L2C PREFETCH REQUESTED:          0 ISSUED:          0 USEFUL:          0 USELESS:          0
cpu0->cpu0_L2C AVERAGE MISS LATENCY: 158.7 cycles
cpu0->cpu0_L1I TOTAL        ACCESS:     514132 HIT:     514126 MISS:          6 MSHR_MERGE:          0
cpu0->cpu0_L1I LOAD         ACCESS:     514132 HIT:     514126 MISS:          6 MSHR_MERGE:          0
cpu0->cpu0_L1I RFO          ACCESS:          0 HIT:          0 MISS:          0 MSHR_MERGE:          0
cpu0->cpu0_L1I PREFETCH     ACCESS:          0 HIT:          0 MISS:          0 MSHR_MERGE:          0
cpu0->cpu0_L1I WRITE        ACCESS:          0 HIT:          0 MISS:          0 MSHR_MERGE:          0
cpu0->cpu0_L1I TRANSLATION  ACCESS:          0 HIT:          0 MISS:          0 MSHR_MERGE:          0
cpu0->cpu0_L1I PREFETCH REQUESTED:          0 ISSUED:          0 USEFUL:          0 USELESS:          0
cpu0->cpu0_L1I AVERAGE MISS LATENCY: 221.8 cycles
cpu0->cpu0_L1D TOTAL        ACCESS:    4009960 HIT:    3982537 MISS:      27423 MSHR_MERGE:      19358
cpu0->cpu0_L1D LOAD         ACCESS:    2450248 HIT:    2445195 MISS:       5053 MSHR_MERGE:       1246
cpu0->cpu0_L1D RFO          ACCESS:          0 HIT:          0 MISS:          0 MSHR_MERGE:          0
cpu0->cpu0_L1D PREFETCH     ACCESS:          0 HIT:          0 MISS:          0 MSHR_MERGE:          0
cpu0->cpu0_L1D WRITE        ACCESS:    1559566 HIT:    1537317 MISS:      22249 MSHR_MERGE:      18112
cpu0->cpu0_L1D TRANSLATION  ACCESS:        146 HIT:         25 MISS:        121 MSHR_MERGE:          0
cpu0->cpu0_L1D PREFETCH REQUESTED:          0 ISSUED:          0 USEFUL:          0 USELESS:          0
cpu0->cpu0_L1D AVERAGE MISS LATENCY: 91.65 cycles
cpu0->cpu0_ITLB TOTAL        ACCESS:     460401 HIT:     460401 MISS:          0 MSHR_MERGE:          0
cpu0->cpu0_ITLB LOAD         ACCESS:     460401 HIT:     460401 MISS:          0 MSHR_MERGE:          0
cpu0->cpu0_ITLB RFO          ACCESS:          0 HIT:          0 MISS:          0 MSHR_MERGE:          0
cpu0->cpu0_ITLB PREFETCH     ACCESS:          0 HIT:          0 MISS:          0 MSHR_MERGE:          0
cpu0->cpu0_ITLB WRITE        ACCESS:          0 HIT:          0 MISS:          0 MSHR_MERGE:          0
cpu0->cpu0_ITLB TRANSLATION  ACCESS:          0 HIT:          0 MISS:          0 MSHR_MERGE:          0
cpu0->cpu0_ITLB PREFETCH REQUESTED:          0 ISSUED:          0 USEFUL:          0 USELESS:          0
cpu0->cpu0_ITLB AVERAGE MISS LATENCY: - cycles
cpu0->cpu0_DTLB TOTAL        ACCESS:    3805757 HIT:    3805378 MISS:        379 MSHR_MERGE:        294
cpu0->cpu0_DTLB LOAD         ACCESS:    3805757 HIT:    3805378 MISS:        379 MSHR_MERGE:        294
cpu0->cpu0_DTLB RFO          ACCESS:          0 HIT:          0 MISS:          0 MSHR_MERGE:          0
cpu0->cpu0_DTLB PREFETCH     ACCESS:          0 HIT:          0 MISS:          0 MSHR_MERGE:          0
cpu0->cpu0_DTLB WRITE        ACCESS:          0 HIT:          0 MISS:          0 MSHR_MERGE:          0
cpu0->cpu0_DTLB TRANSLATION  ACCESS:          0 HIT:          0 MISS:          0 MSHR_MERGE:          0
cpu0->cpu0_DTLB PREFETCH REQUESTED:          0 ISSUED:          0 USEFUL:          0 USELESS:          0
cpu0->cpu0_DTLB AVERAGE MISS LATENCY: 581.9 cycles
cpu0->LLC TOTAL        ACCESS:       4249 HIT:         17 MISS:       4232 MSHR_MERGE:          0
cpu0->LLC LOAD         ACCESS:       1289 HIT:          1 MISS:       1288 MSHR_MERGE:          0
cpu0->LLC RFO          ACCESS:       2849 HIT:          0 MISS:       2849 MSHR_MERGE:          0
cpu0->LLC PREFETCH     ACCESS:          0 HIT:          0 MISS:          0 MSHR_MERGE:          0
cpu0->LLC WRITE        ACCESS:         16 HIT:         16 MISS:          0 MSHR_MERGE:          0
cpu0->LLC TRANSLATION  ACCESS:         95 HIT:          0 MISS:         95 MSHR_MERGE:          0
cpu0->LLC PREFETCH REQUESTED:          0 ISSUED:          0 USEFUL:          0 USELESS:          0
cpu0->LLC AVERAGE MISS LATENCY: 142.7 cycles

DRAM Statistics

Channel 0 RQ ROW_BUFFER_HIT:        996
  ROW_BUFFER_MISS:       3236
  AVG DBUS CONGESTED CYCLE: 2.779
Channel 0 WQ ROW_BUFFER_HIT:          0
  ROW_BUFFER_MISS:          0
  FULL:          0
Channel 0 REFRESHES ISSUED:       1549
