
---------- Begin Simulation Statistics ----------
simSeconds                                   0.004325                       # Number of seconds simulated (Second)
simTicks                                   4325318352                       # Number of ticks simulated (Tick)
finalTick                                  4325318352                       # Number of ticks from beginning of simulation (restored from checkpoints and never reset) (Tick)
simFreq                                  1000000000000                       # The number of ticks per simulated second ((Tick/Second))
hostSeconds                                     63.02                       # Real time elapsed on the host (Second)
hostTickRate                                 68633326                       # The number of ticks simulated per host second (ticks/s) ((Tick/Second))
hostMemory                                     288820                       # Number of bytes of host memory used (Byte)
simInsts                                     15745975                       # Number of instructions simulated (Count)
simOps                                       17177661                       # Number of ops (including micro ops) simulated (Count)
hostInstRate                                   249853                       # Simulator instruction rate (inst/s) ((Count/Second))
hostOpRate                                     272571                       # Simulator op (including micro ops) rate (op/s) ((Count/Second))
board.cache_hierarchy.l1dcaches.demandHits::processor.cores.core.data      5325989                       # number of demand (read+write) hits (Count)
board.cache_hierarchy.l1dcaches.demandHits::total      5325989                       # number of demand (read+write) hits (Count)
board.cache_hierarchy.l1dcaches.overallHits::processor.cores.core.data      5325989                       # number of overall hits (Count)
board.cache_hierarchy.l1dcaches.overallHits::total      5325989                       # number of overall hits (Count)
board.cache_hierarchy.l1dcaches.demandMisses::processor.cores.core.data        23759                       # number of demand (read+write) misses (Count)
board.cache_hierarchy.l1dcaches.demandMisses::total        23759                       # number of demand (read+write) misses (Count)
board.cache_hierarchy.l1dcaches.overallMisses::processor.cores.core.data        23759                       # number of overall misses (Count)
board.cache_hierarchy.l1dcaches.overallMisses::total        23759                       # number of overall misses (Count)
board.cache_hierarchy.l1dcaches.demandMissLatency::processor.cores.core.data    440685780                       # number of demand (read+write) miss ticks (Tick)
board.cache_hierarchy.l1dcaches.demandMissLatency::total    440685780                       # number of demand (read+write) miss ticks (Tick)
board.cache_hierarchy.l1dcaches.overallMissLatency::processor.cores.core.data    440685780                       # number of overall miss ticks (Tick)
board.cache_hierarchy.l1dcaches.overallMissLatency::total    440685780                       # number of overall miss ticks (Tick)
board.cache_hierarchy.l1dcaches.demandAccesses::processor.cores.core.data      5349748                       # number of demand (read+write) accesses (Count)
board.cache_hierarchy.l1dcaches.demandAccesses::total      5349748                       # number of demand (read+write) accesses (Count)
board.cache_hierarchy.l1dcaches.overallAccesses::processor.cores.core.data      5349748                       # number of overall (read+write) accesses (Count)
board.cache_hierarchy.l1dcaches.overallAccesses::total      5349748                       # number of overall (read+write) accesses (Count)
board.cache_hierarchy.l1dcaches.demandMissRate::processor.cores.core.data     0.004441                       # miss rate for demand accesses (Ratio)
board.cache_hierarchy.l1dcaches.demandMissRate::total     0.004441                       # miss rate for demand accesses (Ratio)
board.cache_hierarchy.l1dcaches.overallMissRate::processor.cores.core.data     0.004441                       # miss rate for overall accesses (Ratio)
board.cache_hierarchy.l1dcaches.overallMissRate::total     0.004441                       # miss rate for overall accesses (Ratio)
board.cache_hierarchy.l1dcaches.demandAvgMissLatency::processor.cores.core.data 18548.161960                       # average overall miss latency in ticks ((Tick/Count))
board.cache_hierarchy.l1dcaches.demandAvgMissLatency::total 18548.161960                       # average overall miss latency in ticks ((Tick/Count))
board.cache_hierarchy.l1dcaches.overallAvgMissLatency::processor.cores.core.data 18548.161960                       # average overall miss latency ((Tick/Count))
board.cache_hierarchy.l1dcaches.overallAvgMissLatency::total 18548.161960                       # average overall miss latency ((Tick/Count))
board.cache_hierarchy.l1dcaches.blockedCycles::no_mshrs         4098                       # number of cycles access was blocked (Cycle)
board.cache_hierarchy.l1dcaches.blockedCycles::no_wbuffers            0                       # number of cycles access was blocked (Cycle)
board.cache_hierarchy.l1dcaches.blockedCycles::no_targets        31481                       # number of cycles access was blocked (Cycle)
board.cache_hierarchy.l1dcaches.blockedCauses::no_mshrs          241                       # number of times access was blocked (Count)
board.cache_hierarchy.l1dcaches.blockedCauses::no_wbuffers            0                       # number of times access was blocked (Count)
board.cache_hierarchy.l1dcaches.blockedCauses::no_targets          838                       # number of times access was blocked (Count)
board.cache_hierarchy.l1dcaches.avgBlocked::no_mshrs    17.004149                       # average number of cycles each access was blocked ((Cycle/Count))
board.cache_hierarchy.l1dcaches.avgBlocked::no_wbuffers          nan                       # average number of cycles each access was blocked ((Cycle/Count))
board.cache_hierarchy.l1dcaches.avgBlocked::no_targets    37.566826                       # average number of cycles each access was blocked ((Cycle/Count))
board.cache_hierarchy.l1dcaches.writebacks::writebacks        40177                       # number of writebacks (Count)
board.cache_hierarchy.l1dcaches.writebacks::total        40177                       # number of writebacks (Count)
board.cache_hierarchy.l1dcaches.demandMshrHits::processor.cores.core.data        14192                       # number of demand (read+write) MSHR hits (Count)
board.cache_hierarchy.l1dcaches.demandMshrHits::total        14192                       # number of demand (read+write) MSHR hits (Count)
board.cache_hierarchy.l1dcaches.overallMshrHits::processor.cores.core.data        14192                       # number of overall MSHR hits (Count)
board.cache_hierarchy.l1dcaches.overallMshrHits::total        14192                       # number of overall MSHR hits (Count)
board.cache_hierarchy.l1dcaches.demandMshrMisses::processor.cores.core.data         9567                       # number of demand (read+write) MSHR misses (Count)
board.cache_hierarchy.l1dcaches.demandMshrMisses::total         9567                       # number of demand (read+write) MSHR misses (Count)
board.cache_hierarchy.l1dcaches.overallMshrMisses::cache_hierarchy.l1dcaches.prefetcher.prefetchers0        11377                       # number of overall MSHR misses (Count)
board.cache_hierarchy.l1dcaches.overallMshrMisses::cache_hierarchy.l1dcaches.prefetcher.prefetchers1         9017                       # number of overall MSHR misses (Count)
board.cache_hierarchy.l1dcaches.overallMshrMisses::cache_hierarchy.l1dcaches.prefetcher.prefetchers2        11244                       # number of overall MSHR misses (Count)
board.cache_hierarchy.l1dcaches.overallMshrMisses::processor.cores.core.data         9567                       # number of overall MSHR misses (Count)
board.cache_hierarchy.l1dcaches.overallMshrMisses::total        41205                       # number of overall MSHR misses (Count)
board.cache_hierarchy.l1dcaches.demandMshrMissLatency::processor.cores.core.data    174697063                       # number of demand (read+write) MSHR miss ticks (Tick)
board.cache_hierarchy.l1dcaches.demandMshrMissLatency::total    174697063                       # number of demand (read+write) MSHR miss ticks (Tick)
board.cache_hierarchy.l1dcaches.overallMshrMissLatency::cache_hierarchy.l1dcaches.prefetcher.prefetchers0    183769513                       # number of overall MSHR miss ticks (Tick)
board.cache_hierarchy.l1dcaches.overallMshrMissLatency::cache_hierarchy.l1dcaches.prefetcher.prefetchers1    200175507                       # number of overall MSHR miss ticks (Tick)
board.cache_hierarchy.l1dcaches.overallMshrMissLatency::cache_hierarchy.l1dcaches.prefetcher.prefetchers2    208446512                       # number of overall MSHR miss ticks (Tick)
board.cache_hierarchy.l1dcaches.overallMshrMissLatency::processor.cores.core.data    174697063                       # number of overall MSHR miss ticks (Tick)
board.cache_hierarchy.l1dcaches.overallMshrMissLatency::total    767088595                       # number of overall MSHR miss ticks (Tick)
board.cache_hierarchy.l1dcaches.demandMshrMissRate::processor.cores.core.data     0.001788                       # mshr miss ratio for demand accesses (Ratio)
board.cache_hierarchy.l1dcaches.demandMshrMissRate::total     0.001788                       # mshr miss ratio for demand accesses (Ratio)
board.cache_hierarchy.l1dcaches.overallMshrMissRate::cache_hierarchy.l1dcaches.prefetcher.prefetchers0          inf                       # mshr miss ratio for overall accesses (Ratio)
board.cache_hierarchy.l1dcaches.overallMshrMissRate::cache_hierarchy.l1dcaches.prefetcher.prefetchers1          inf                       # mshr miss ratio for overall accesses (Ratio)
board.cache_hierarchy.l1dcaches.overallMshrMissRate::cache_hierarchy.l1dcaches.prefetcher.prefetchers2          inf                       # mshr miss ratio for overall accesses (Ratio)
board.cache_hierarchy.l1dcaches.overallMshrMissRate::processor.cores.core.data     0.001788                       # mshr miss ratio for overall accesses (Ratio)
board.cache_hierarchy.l1dcaches.overallMshrMissRate::total     0.007702                       # mshr miss ratio for overall accesses (Ratio)
board.cache_hierarchy.l1dcaches.demandAvgMshrMissLatency::processor.cores.core.data 18260.380788                       # average overall mshr miss latency ((Tick/Count))
board.cache_hierarchy.l1dcaches.demandAvgMshrMissLatency::total 18260.380788                       # average overall mshr miss latency ((Tick/Count))
board.cache_hierarchy.l1dcaches.overallAvgMshrMissLatency::cache_hierarchy.l1dcaches.prefetcher.prefetchers0 16152.721543                       # average overall mshr miss latency ((Tick/Count))
board.cache_hierarchy.l1dcaches.overallAvgMshrMissLatency::cache_hierarchy.l1dcaches.prefetcher.prefetchers1 22199.790063                       # average overall mshr miss latency ((Tick/Count))
board.cache_hierarchy.l1dcaches.overallAvgMshrMissLatency::cache_hierarchy.l1dcaches.prefetcher.prefetchers2 18538.466026                       # average overall mshr miss latency ((Tick/Count))
board.cache_hierarchy.l1dcaches.overallAvgMshrMissLatency::processor.cores.core.data 18260.380788                       # average overall mshr miss latency ((Tick/Count))
board.cache_hierarchy.l1dcaches.overallAvgMshrMissLatency::total 18616.395947                       # average overall mshr miss latency ((Tick/Count))
board.cache_hierarchy.l1dcaches.replacements        40177                       # number of replacements (Count)
board.cache_hierarchy.l1dcaches.HardPFReq.mshrMisses::cache_hierarchy.l1dcaches.prefetcher.prefetchers0        11377                       # number of HardPFReq MSHR misses (Count)
board.cache_hierarchy.l1dcaches.HardPFReq.mshrMisses::cache_hierarchy.l1dcaches.prefetcher.prefetchers1         9017                       # number of HardPFReq MSHR misses (Count)
board.cache_hierarchy.l1dcaches.HardPFReq.mshrMisses::cache_hierarchy.l1dcaches.prefetcher.prefetchers2        11244                       # number of HardPFReq MSHR misses (Count)
board.cache_hierarchy.l1dcaches.HardPFReq.mshrMisses::total        31638                       # number of HardPFReq MSHR misses (Count)
board.cache_hierarchy.l1dcaches.HardPFReq.mshrMissLatency::cache_hierarchy.l1dcaches.prefetcher.prefetchers0    183769513                       # number of HardPFReq MSHR miss ticks (Tick)
board.cache_hierarchy.l1dcaches.HardPFReq.mshrMissLatency::cache_hierarchy.l1dcaches.prefetcher.prefetchers1    200175507                       # number of HardPFReq MSHR miss ticks (Tick)
board.cache_hierarchy.l1dcaches.HardPFReq.mshrMissLatency::cache_hierarchy.l1dcaches.prefetcher.prefetchers2    208446512                       # number of HardPFReq MSHR miss ticks (Tick)
board.cache_hierarchy.l1dcaches.HardPFReq.mshrMissLatency::total    592391532                       # number of HardPFReq MSHR miss ticks (Tick)
board.cache_hierarchy.l1dcaches.HardPFReq.mshrMissRate::cache_hierarchy.l1dcaches.prefetcher.prefetchers0          inf                       # mshr miss rate for HardPFReq accesses (Ratio)
board.cache_hierarchy.l1dcaches.HardPFReq.mshrMissRate::cache_hierarchy.l1dcaches.prefetcher.prefetchers1          inf                       # mshr miss rate for HardPFReq accesses (Ratio)
board.cache_hierarchy.l1dcaches.HardPFReq.mshrMissRate::cache_hierarchy.l1dcaches.prefetcher.prefetchers2          inf                       # mshr miss rate for HardPFReq accesses (Ratio)
board.cache_hierarchy.l1dcaches.HardPFReq.mshrMissRate::total          inf                       # mshr miss rate for HardPFReq accesses (Ratio)
board.cache_hierarchy.l1dcaches.HardPFReq.avgMshrMissLatency::cache_hierarchy.l1dcaches.prefetcher.prefetchers0 16152.721543                       # average HardPFReq mshr miss latency ((Tick/Count))
board.cache_hierarchy.l1dcaches.HardPFReq.avgMshrMissLatency::cache_hierarchy.l1dcaches.prefetcher.prefetchers1 22199.790063                       # average HardPFReq mshr miss latency ((Tick/Count))
board.cache_hierarchy.l1dcaches.HardPFReq.avgMshrMissLatency::cache_hierarchy.l1dcaches.prefetcher.prefetchers2 18538.466026                       # average HardPFReq mshr miss latency ((Tick/Count))
board.cache_hierarchy.l1dcaches.HardPFReq.avgMshrMissLatency::total 18724.051204                       # average HardPFReq mshr miss latency ((Tick/Count))
board.cache_hierarchy.l1dcaches.LoadLockedReq.hits::processor.cores.core.data           16                       # number of LoadLockedReq hits (Count)
board.cache_hierarchy.l1dcaches.LoadLockedReq.hits::total           16                       # number of LoadLockedReq hits (Count)
board.cache_hierarchy.l1dcaches.LoadLockedReq.misses::processor.cores.core.data            1                       # number of LoadLockedReq misses (Count)
board.cache_hierarchy.l1dcaches.LoadLockedReq.misses::total            1                       # number of LoadLockedReq misses (Count)
board.cache_hierarchy.l1dcaches.LoadLockedReq.missLatency::processor.cores.core.data         6993                       # number of LoadLockedReq miss ticks (Tick)
board.cache_hierarchy.l1dcaches.LoadLockedReq.missLatency::total         6993                       # number of LoadLockedReq miss ticks (Tick)
board.cache_hierarchy.l1dcaches.LoadLockedReq.accesses::processor.cores.core.data           17                       # number of LoadLockedReq accesses(hits+misses) (Count)
board.cache_hierarchy.l1dcaches.LoadLockedReq.accesses::total           17                       # number of LoadLockedReq accesses(hits+misses) (Count)
board.cache_hierarchy.l1dcaches.LoadLockedReq.missRate::processor.cores.core.data     0.058824                       # miss rate for LoadLockedReq accesses (Ratio)
board.cache_hierarchy.l1dcaches.LoadLockedReq.missRate::total     0.058824                       # miss rate for LoadLockedReq accesses (Ratio)
board.cache_hierarchy.l1dcaches.LoadLockedReq.avgMissLatency::processor.cores.core.data         6993                       # average LoadLockedReq miss latency ((Tick/Count))
board.cache_hierarchy.l1dcaches.LoadLockedReq.avgMissLatency::total         6993                       # average LoadLockedReq miss latency ((Tick/Count))
board.cache_hierarchy.l1dcaches.LoadLockedReq.mshrMisses::processor.cores.core.data            1                       # number of LoadLockedReq MSHR misses (Count)
board.cache_hierarchy.l1dcaches.LoadLockedReq.mshrMisses::total            1                       # number of LoadLockedReq MSHR misses (Count)
board.cache_hierarchy.l1dcaches.LoadLockedReq.mshrMissLatency::processor.cores.core.data         5661                       # number of LoadLockedReq MSHR miss ticks (Tick)
board.cache_hierarchy.l1dcaches.LoadLockedReq.mshrMissLatency::total         5661                       # number of LoadLockedReq MSHR miss ticks (Tick)
board.cache_hierarchy.l1dcaches.LoadLockedReq.mshrMissRate::processor.cores.core.data     0.058824                       # mshr miss rate for LoadLockedReq accesses (Ratio)
board.cache_hierarchy.l1dcaches.LoadLockedReq.mshrMissRate::total     0.058824                       # mshr miss rate for LoadLockedReq accesses (Ratio)
board.cache_hierarchy.l1dcaches.LoadLockedReq.avgMshrMissLatency::processor.cores.core.data         5661                       # average LoadLockedReq mshr miss latency ((Tick/Count))
board.cache_hierarchy.l1dcaches.LoadLockedReq.avgMshrMissLatency::total         5661                       # average LoadLockedReq mshr miss latency ((Tick/Count))
board.cache_hierarchy.l1dcaches.ReadReq.hits::processor.cores.core.data      3870744                       # number of ReadReq hits (Count)
board.cache_hierarchy.l1dcaches.ReadReq.hits::total      3870744                       # number of ReadReq hits (Count)
board.cache_hierarchy.l1dcaches.ReadReq.misses::processor.cores.core.data         9827                       # number of ReadReq misses (Count)
board.cache_hierarchy.l1dcaches.ReadReq.misses::total         9827                       # number of ReadReq misses (Count)
board.cache_hierarchy.l1dcaches.ReadReq.missLatency::processor.cores.core.data    194511294                       # number of ReadReq miss ticks (Tick)
board.cache_hierarchy.l1dcaches.ReadReq.missLatency::total    194511294                       # number of ReadReq miss ticks (Tick)
board.cache_hierarchy.l1dcaches.ReadReq.accesses::processor.cores.core.data      3880571                       # number of ReadReq accesses(hits+misses) (Count)
board.cache_hierarchy.l1dcaches.ReadReq.accesses::total      3880571                       # number of ReadReq accesses(hits+misses) (Count)
board.cache_hierarchy.l1dcaches.ReadReq.missRate::processor.cores.core.data     0.002532                       # miss rate for ReadReq accesses (Ratio)
board.cache_hierarchy.l1dcaches.ReadReq.missRate::total     0.002532                       # miss rate for ReadReq accesses (Ratio)
board.cache_hierarchy.l1dcaches.ReadReq.avgMissLatency::processor.cores.core.data 19793.557953                       # average ReadReq miss latency ((Tick/Count))
board.cache_hierarchy.l1dcaches.ReadReq.avgMissLatency::total 19793.557953                       # average ReadReq miss latency ((Tick/Count))
board.cache_hierarchy.l1dcaches.ReadReq.mshrHits::processor.cores.core.data         6714                       # number of ReadReq MSHR hits (Count)
board.cache_hierarchy.l1dcaches.ReadReq.mshrHits::total         6714                       # number of ReadReq MSHR hits (Count)
board.cache_hierarchy.l1dcaches.ReadReq.mshrMisses::processor.cores.core.data         3113                       # number of ReadReq MSHR misses (Count)
board.cache_hierarchy.l1dcaches.ReadReq.mshrMisses::total         3113                       # number of ReadReq MSHR misses (Count)
board.cache_hierarchy.l1dcaches.ReadReq.mshrMissLatency::processor.cores.core.data     62849754                       # number of ReadReq MSHR miss ticks (Tick)
board.cache_hierarchy.l1dcaches.ReadReq.mshrMissLatency::total     62849754                       # number of ReadReq MSHR miss ticks (Tick)
board.cache_hierarchy.l1dcaches.ReadReq.mshrMissRate::processor.cores.core.data     0.000802                       # mshr miss rate for ReadReq accesses (Ratio)
board.cache_hierarchy.l1dcaches.ReadReq.mshrMissRate::total     0.000802                       # mshr miss rate for ReadReq accesses (Ratio)
board.cache_hierarchy.l1dcaches.ReadReq.avgMshrMissLatency::processor.cores.core.data 20189.448763                       # average ReadReq mshr miss latency ((Tick/Count))
board.cache_hierarchy.l1dcaches.ReadReq.avgMshrMissLatency::total 20189.448763                       # average ReadReq mshr miss latency ((Tick/Count))
board.cache_hierarchy.l1dcaches.StoreCondReq.hits::processor.cores.core.data            7                       # number of StoreCondReq hits (Count)
board.cache_hierarchy.l1dcaches.StoreCondReq.hits::total            7                       # number of StoreCondReq hits (Count)
board.cache_hierarchy.l1dcaches.StoreCondReq.accesses::processor.cores.core.data            7                       # number of StoreCondReq accesses(hits+misses) (Count)
board.cache_hierarchy.l1dcaches.StoreCondReq.accesses::total            7                       # number of StoreCondReq accesses(hits+misses) (Count)
board.cache_hierarchy.l1dcaches.SwapReq.hits::processor.cores.core.data           44                       # number of SwapReq hits (Count)
board.cache_hierarchy.l1dcaches.SwapReq.hits::total           44                       # number of SwapReq hits (Count)
board.cache_hierarchy.l1dcaches.SwapReq.misses::processor.cores.core.data            2                       # number of SwapReq misses (Count)
board.cache_hierarchy.l1dcaches.SwapReq.misses::total            2                       # number of SwapReq misses (Count)
board.cache_hierarchy.l1dcaches.SwapReq.missLatency::processor.cores.core.data        13986                       # number of SwapReq miss ticks (Tick)
board.cache_hierarchy.l1dcaches.SwapReq.missLatency::total        13986                       # number of SwapReq miss ticks (Tick)
board.cache_hierarchy.l1dcaches.SwapReq.accesses::processor.cores.core.data           46                       # number of SwapReq accesses(hits+misses) (Count)
board.cache_hierarchy.l1dcaches.SwapReq.accesses::total           46                       # number of SwapReq accesses(hits+misses) (Count)
board.cache_hierarchy.l1dcaches.SwapReq.missRate::processor.cores.core.data     0.043478                       # miss rate for SwapReq accesses (Ratio)
board.cache_hierarchy.l1dcaches.SwapReq.missRate::total     0.043478                       # miss rate for SwapReq accesses (Ratio)
board.cache_hierarchy.l1dcaches.SwapReq.avgMissLatency::processor.cores.core.data         6993                       # average SwapReq miss latency ((Tick/Count))
board.cache_hierarchy.l1dcaches.SwapReq.avgMissLatency::total         6993                       # average SwapReq miss latency ((Tick/Count))
board.cache_hierarchy.l1dcaches.SwapReq.mshrMisses::processor.cores.core.data            2                       # number of SwapReq MSHR misses (Count)
board.cache_hierarchy.l1dcaches.SwapReq.mshrMisses::total            2                       # number of SwapReq MSHR misses (Count)
board.cache_hierarchy.l1dcaches.SwapReq.mshrMissLatency::processor.cores.core.data        11322                       # number of SwapReq MSHR miss ticks (Tick)
board.cache_hierarchy.l1dcaches.SwapReq.mshrMissLatency::total        11322                       # number of SwapReq MSHR miss ticks (Tick)
board.cache_hierarchy.l1dcaches.SwapReq.mshrMissRate::processor.cores.core.data     0.043478                       # mshr miss rate for SwapReq accesses (Ratio)
board.cache_hierarchy.l1dcaches.SwapReq.mshrMissRate::total     0.043478                       # mshr miss rate for SwapReq accesses (Ratio)
board.cache_hierarchy.l1dcaches.SwapReq.avgMshrMissLatency::processor.cores.core.data         5661                       # average SwapReq mshr miss latency ((Tick/Count))
board.cache_hierarchy.l1dcaches.SwapReq.avgMshrMissLatency::total         5661                       # average SwapReq mshr miss latency ((Tick/Count))
board.cache_hierarchy.l1dcaches.WriteLineReq.misses::processor.cores.core.data           14                       # number of WriteLineReq misses (Count)
board.cache_hierarchy.l1dcaches.WriteLineReq.misses::total           14                       # number of WriteLineReq misses (Count)
board.cache_hierarchy.l1dcaches.WriteLineReq.missLatency::processor.cores.core.data       491506                       # number of WriteLineReq miss ticks (Tick)
board.cache_hierarchy.l1dcaches.WriteLineReq.missLatency::total       491506                       # number of WriteLineReq miss ticks (Tick)
board.cache_hierarchy.l1dcaches.WriteLineReq.accesses::processor.cores.core.data           14                       # number of WriteLineReq accesses(hits+misses) (Count)
board.cache_hierarchy.l1dcaches.WriteLineReq.accesses::total           14                       # number of WriteLineReq accesses(hits+misses) (Count)
board.cache_hierarchy.l1dcaches.WriteLineReq.missRate::processor.cores.core.data            1                       # miss rate for WriteLineReq accesses (Ratio)
board.cache_hierarchy.l1dcaches.WriteLineReq.missRate::total            1                       # miss rate for WriteLineReq accesses (Ratio)
board.cache_hierarchy.l1dcaches.WriteLineReq.avgMissLatency::processor.cores.core.data 35107.571429                       # average WriteLineReq miss latency ((Tick/Count))
board.cache_hierarchy.l1dcaches.WriteLineReq.avgMissLatency::total 35107.571429                       # average WriteLineReq miss latency ((Tick/Count))
board.cache_hierarchy.l1dcaches.WriteLineReq.mshrHits::processor.cores.core.data            4                       # number of WriteLineReq MSHR hits (Count)
board.cache_hierarchy.l1dcaches.WriteLineReq.mshrHits::total            4                       # number of WriteLineReq MSHR hits (Count)
board.cache_hierarchy.l1dcaches.WriteLineReq.mshrMisses::processor.cores.core.data           10                       # number of WriteLineReq MSHR misses (Count)
board.cache_hierarchy.l1dcaches.WriteLineReq.mshrMisses::total           10                       # number of WriteLineReq MSHR misses (Count)
board.cache_hierarchy.l1dcaches.WriteLineReq.mshrMissLatency::processor.cores.core.data       124540                       # number of WriteLineReq MSHR miss ticks (Tick)
board.cache_hierarchy.l1dcaches.WriteLineReq.mshrMissLatency::total       124540                       # number of WriteLineReq MSHR miss ticks (Tick)
board.cache_hierarchy.l1dcaches.WriteLineReq.mshrMissRate::processor.cores.core.data     0.714286                       # mshr miss rate for WriteLineReq accesses (Ratio)
board.cache_hierarchy.l1dcaches.WriteLineReq.mshrMissRate::total     0.714286                       # mshr miss rate for WriteLineReq accesses (Ratio)
board.cache_hierarchy.l1dcaches.WriteLineReq.avgMshrMissLatency::processor.cores.core.data        12454                       # average WriteLineReq mshr miss latency ((Tick/Count))
board.cache_hierarchy.l1dcaches.WriteLineReq.avgMshrMissLatency::total        12454                       # average WriteLineReq mshr miss latency ((Tick/Count))
board.cache_hierarchy.l1dcaches.WriteReq.hits::processor.cores.core.data      1455245                       # number of WriteReq hits (Count)
board.cache_hierarchy.l1dcaches.WriteReq.hits::total      1455245                       # number of WriteReq hits (Count)
board.cache_hierarchy.l1dcaches.WriteReq.misses::processor.cores.core.data        13918                       # number of WriteReq misses (Count)
board.cache_hierarchy.l1dcaches.WriteReq.misses::total        13918                       # number of WriteReq misses (Count)
board.cache_hierarchy.l1dcaches.WriteReq.missLatency::processor.cores.core.data    245682980                       # number of WriteReq miss ticks (Tick)
board.cache_hierarchy.l1dcaches.WriteReq.missLatency::total    245682980                       # number of WriteReq miss ticks (Tick)
board.cache_hierarchy.l1dcaches.WriteReq.accesses::processor.cores.core.data      1469163                       # number of WriteReq accesses(hits+misses) (Count)
board.cache_hierarchy.l1dcaches.WriteReq.accesses::total      1469163                       # number of WriteReq accesses(hits+misses) (Count)
board.cache_hierarchy.l1dcaches.WriteReq.missRate::processor.cores.core.data     0.009473                       # miss rate for WriteReq accesses (Ratio)
board.cache_hierarchy.l1dcaches.WriteReq.missRate::total     0.009473                       # miss rate for WriteReq accesses (Ratio)
board.cache_hierarchy.l1dcaches.WriteReq.avgMissLatency::processor.cores.core.data 17652.175600                       # average WriteReq miss latency ((Tick/Count))
board.cache_hierarchy.l1dcaches.WriteReq.avgMissLatency::total 17652.175600                       # average WriteReq miss latency ((Tick/Count))
board.cache_hierarchy.l1dcaches.WriteReq.mshrHits::processor.cores.core.data         7474                       # number of WriteReq MSHR hits (Count)
board.cache_hierarchy.l1dcaches.WriteReq.mshrHits::total         7474                       # number of WriteReq MSHR hits (Count)
board.cache_hierarchy.l1dcaches.WriteReq.mshrMisses::processor.cores.core.data         6444                       # number of WriteReq MSHR misses (Count)
board.cache_hierarchy.l1dcaches.WriteReq.mshrMisses::total         6444                       # number of WriteReq MSHR misses (Count)
board.cache_hierarchy.l1dcaches.WriteReq.mshrMissLatency::processor.cores.core.data    111722769                       # number of WriteReq MSHR miss ticks (Tick)
board.cache_hierarchy.l1dcaches.WriteReq.mshrMissLatency::total    111722769                       # number of WriteReq MSHR miss ticks (Tick)
board.cache_hierarchy.l1dcaches.WriteReq.mshrMissRate::processor.cores.core.data     0.004386                       # mshr miss rate for WriteReq accesses (Ratio)
board.cache_hierarchy.l1dcaches.WriteReq.mshrMissRate::total     0.004386                       # mshr miss rate for WriteReq accesses (Ratio)
board.cache_hierarchy.l1dcaches.WriteReq.avgMshrMissLatency::processor.cores.core.data 17337.487430                       # average WriteReq mshr miss latency ((Tick/Count))
board.cache_hierarchy.l1dcaches.WriteReq.avgMshrMissLatency::total 17337.487430                       # average WriteReq mshr miss latency ((Tick/Count))
board.cache_hierarchy.l1dcaches.power_state.pwrStateResidencyTicks::UNDEFINED   4325318352                       # Cumulative time (in ticks) in various power states (Tick)
board.cache_hierarchy.l1dcaches.prefetcher.demandMshrMisses            0                       # demands not covered by prefetchs (Count)
board.cache_hierarchy.l1dcaches.prefetcher.pfIssued        90390                       # number of hwpf issued (Count)
board.cache_hierarchy.l1dcaches.prefetcher.pfUseful            0                       # number of useful prefetch (Count)
board.cache_hierarchy.l1dcaches.prefetcher.pfUsefulButMiss            0                       # number of hit on prefetch but cache block is not in an usable state (Count)
board.cache_hierarchy.l1dcaches.prefetcher.accuracy            0                       # accuracy of the prefetcher (Count)
board.cache_hierarchy.l1dcaches.prefetcher.coverage          nan                       # coverage brought by this prefetcher (Count)
board.cache_hierarchy.l1dcaches.prefetcher.pfHitInCache        54826                       # number of prefetches hitting in cache (Count)
board.cache_hierarchy.l1dcaches.prefetcher.pfHitInMSHR         3924                       # number of prefetches hitting in a MSHR (Count)
board.cache_hierarchy.l1dcaches.prefetcher.pfHitInWB            2                       # number of prefetches hit in the Write Buffer (Count)
board.cache_hierarchy.l1dcaches.prefetcher.pfLate        58752                       # number of late prefetches (hitting in cache, MSHR or WB) (Count)
board.cache_hierarchy.l1dcaches.prefetcher.power_state.pwrStateResidencyTicks::UNDEFINED   4325318352                       # Cumulative time (in ticks) in various power states (Tick)
board.cache_hierarchy.l1dcaches.prefetcher.prefetchers0.demandMshrMisses         9567                       # demands not covered by prefetchs (Count)
board.cache_hierarchy.l1dcaches.prefetcher.prefetchers0.pfIssued        70017                       # number of hwpf issued (Count)
board.cache_hierarchy.l1dcaches.prefetcher.prefetchers0.pfUnused         9789                       # number of HardPF blocks evicted w/o reference (Count)
board.cache_hierarchy.l1dcaches.prefetcher.prefetchers0.pfUseful        10394                       # number of useful prefetch (Count)
board.cache_hierarchy.l1dcaches.prefetcher.prefetchers0.pfUsefulButMiss            0                       # number of hit on prefetch but cache block is not in an usable state (Count)
board.cache_hierarchy.l1dcaches.prefetcher.prefetchers0.accuracy     0.148450                       # accuracy of the prefetcher (Count)
board.cache_hierarchy.l1dcaches.prefetcher.prefetchers0.coverage     0.520715                       # coverage brought by this prefetcher (Count)
board.cache_hierarchy.l1dcaches.prefetcher.prefetchers0.pfHitInCache            0                       # number of prefetches hitting in cache (Count)
board.cache_hierarchy.l1dcaches.prefetcher.prefetchers0.pfHitInMSHR            0                       # number of prefetches hitting in a MSHR (Count)
board.cache_hierarchy.l1dcaches.prefetcher.prefetchers0.pfHitInWB            0                       # number of prefetches hit in the Write Buffer (Count)
board.cache_hierarchy.l1dcaches.prefetcher.prefetchers0.pfLate            0                       # number of late prefetches (hitting in cache, MSHR or WB) (Count)
board.cache_hierarchy.l1dcaches.prefetcher.prefetchers0.pfIdentified        74158                       # number of prefetch candidates identified (Count)
board.cache_hierarchy.l1dcaches.prefetcher.prefetchers0.pfBufferHit         3476                       # number of redundant prefetches already in prefetch queue (Count)
board.cache_hierarchy.l1dcaches.prefetcher.prefetchers0.pfInCache            0                       # number of redundant prefetches already in cache/mshr dropped (Count)
board.cache_hierarchy.l1dcaches.prefetcher.prefetchers0.pfRemovedDemand          361                       # number of prefetches dropped due to a demand for the same address (Count)
board.cache_hierarchy.l1dcaches.prefetcher.prefetchers0.pfRemovedFull            0                       # number of prefetches dropped due to prefetch queue size (Count)
board.cache_hierarchy.l1dcaches.prefetcher.prefetchers0.pfSpanPage         6306                       # number of prefetches that crossed the page (Count)
board.cache_hierarchy.l1dcaches.prefetcher.prefetchers0.pfUsefulSpanPage         5188                       # number of prefetches that is useful and crossed the page (Count)
board.cache_hierarchy.l1dcaches.prefetcher.prefetchers0.power_state.pwrStateResidencyTicks::UNDEFINED   4325318352                       # Cumulative time (in ticks) in various power states (Tick)
board.cache_hierarchy.l1dcaches.prefetcher.prefetchers1.demandMshrMisses         9567                       # demands not covered by prefetchs (Count)
board.cache_hierarchy.l1dcaches.prefetcher.prefetchers1.pfIssued         9075                       # number of hwpf issued (Count)
board.cache_hierarchy.l1dcaches.prefetcher.prefetchers1.pfUnused         9789                       # number of HardPF blocks evicted w/o reference (Count)
board.cache_hierarchy.l1dcaches.prefetcher.prefetchers1.pfUseful         3606                       # number of useful prefetch (Count)
board.cache_hierarchy.l1dcaches.prefetcher.prefetchers1.pfUsefulButMiss            0                       # number of hit on prefetch but cache block is not in an usable state (Count)
board.cache_hierarchy.l1dcaches.prefetcher.prefetchers1.accuracy     0.397355                       # accuracy of the prefetcher (Count)
board.cache_hierarchy.l1dcaches.prefetcher.prefetchers1.coverage     0.273742                       # coverage brought by this prefetcher (Count)
board.cache_hierarchy.l1dcaches.prefetcher.prefetchers1.pfHitInCache            0                       # number of prefetches hitting in cache (Count)
board.cache_hierarchy.l1dcaches.prefetcher.prefetchers1.pfHitInMSHR            0                       # number of prefetches hitting in a MSHR (Count)
board.cache_hierarchy.l1dcaches.prefetcher.prefetchers1.pfHitInWB            0                       # number of prefetches hit in the Write Buffer (Count)
board.cache_hierarchy.l1dcaches.prefetcher.prefetchers1.pfLate            0                       # number of late prefetches (hitting in cache, MSHR or WB) (Count)
board.cache_hierarchy.l1dcaches.prefetcher.prefetchers1.pfIdentified        33616                       # number of prefetch candidates identified (Count)
board.cache_hierarchy.l1dcaches.prefetcher.prefetchers1.pfBufferHit         1792                       # number of redundant prefetches already in prefetch queue (Count)
board.cache_hierarchy.l1dcaches.prefetcher.prefetchers1.pfInCache        19830                       # number of redundant prefetches already in cache/mshr dropped (Count)
board.cache_hierarchy.l1dcaches.prefetcher.prefetchers1.pfRemovedDemand           55                       # number of prefetches dropped due to a demand for the same address (Count)
board.cache_hierarchy.l1dcaches.prefetcher.prefetchers1.pfRemovedFull         2638                       # number of prefetches dropped due to prefetch queue size (Count)
board.cache_hierarchy.l1dcaches.prefetcher.prefetchers1.pfSpanPage            0                       # number of prefetches that crossed the page (Count)
board.cache_hierarchy.l1dcaches.prefetcher.prefetchers1.pfUsefulSpanPage            0                       # number of prefetches that is useful and crossed the page (Count)
board.cache_hierarchy.l1dcaches.prefetcher.prefetchers1.power_state.pwrStateResidencyTicks::UNDEFINED   4325318352                       # Cumulative time (in ticks) in various power states (Tick)
board.cache_hierarchy.l1dcaches.prefetcher.prefetchers2.demandMshrMisses         9567                       # demands not covered by prefetchs (Count)
board.cache_hierarchy.l1dcaches.prefetcher.prefetchers2.pfIssued        11298                       # number of hwpf issued (Count)
board.cache_hierarchy.l1dcaches.prefetcher.prefetchers2.pfUnused         9789                       # number of HardPF blocks evicted w/o reference (Count)
board.cache_hierarchy.l1dcaches.prefetcher.prefetchers2.pfUseful         6901                       # number of useful prefetch (Count)
board.cache_hierarchy.l1dcaches.prefetcher.prefetchers2.pfUsefulButMiss            0                       # number of hit on prefetch but cache block is not in an usable state (Count)
board.cache_hierarchy.l1dcaches.prefetcher.prefetchers2.accuracy     0.610816                       # accuracy of the prefetcher (Count)
board.cache_hierarchy.l1dcaches.prefetcher.prefetchers2.coverage     0.419055                       # coverage brought by this prefetcher (Count)
board.cache_hierarchy.l1dcaches.prefetcher.prefetchers2.pfHitInCache            0                       # number of prefetches hitting in cache (Count)
board.cache_hierarchy.l1dcaches.prefetcher.prefetchers2.pfHitInMSHR            0                       # number of prefetches hitting in a MSHR (Count)
board.cache_hierarchy.l1dcaches.prefetcher.prefetchers2.pfHitInWB            0                       # number of prefetches hit in the Write Buffer (Count)
board.cache_hierarchy.l1dcaches.prefetcher.prefetchers2.pfLate            0                       # number of late prefetches (hitting in cache, MSHR or WB) (Count)
board.cache_hierarchy.l1dcaches.prefetcher.prefetchers2.pfIdentified        25139                       # number of prefetch candidates identified (Count)
board.cache_hierarchy.l1dcaches.prefetcher.prefetchers2.pfBufferHit          115                       # number of redundant prefetches already in prefetch queue (Count)
board.cache_hierarchy.l1dcaches.prefetcher.prefetchers2.pfInCache        11924                       # number of redundant prefetches already in cache/mshr dropped (Count)
board.cache_hierarchy.l1dcaches.prefetcher.prefetchers2.pfRemovedDemand           70                       # number of prefetches dropped due to a demand for the same address (Count)
board.cache_hierarchy.l1dcaches.prefetcher.prefetchers2.pfRemovedFull          133                       # number of prefetches dropped due to prefetch queue size (Count)
board.cache_hierarchy.l1dcaches.prefetcher.prefetchers2.pfSpanPage         2440                       # number of prefetches that crossed the page (Count)
board.cache_hierarchy.l1dcaches.prefetcher.prefetchers2.pfUsefulSpanPage          476                       # number of prefetches that is useful and crossed the page (Count)
board.cache_hierarchy.l1dcaches.prefetcher.prefetchers2.power_state.pwrStateResidencyTicks::UNDEFINED   4325318352                       # Cumulative time (in ticks) in various power states (Tick)
board.cache_hierarchy.l1dcaches.tags.tagsInUse  1017.795512                       # Average ticks per tags in use ((Tick/Count))
board.cache_hierarchy.l1dcaches.tags.totalRefs      5367264                       # Total number of references to valid blocks. (Count)
board.cache_hierarchy.l1dcaches.tags.sampledRefs        41201                       # Sample count of references to valid blocks. (Count)
board.cache_hierarchy.l1dcaches.tags.avgRefs   130.270236                       # Average number of references to valid blocks. ((Count/Count))
board.cache_hierarchy.l1dcaches.tags.warmupTick       158841                       # The tick when the warmup percentage was hit. (Tick)
board.cache_hierarchy.l1dcaches.tags.occupancies::cache_hierarchy.l1dcaches.prefetcher.prefetchers0   172.479452                       # Average occupied blocks per tick, per requestor ((Count/Tick))
board.cache_hierarchy.l1dcaches.tags.occupancies::cache_hierarchy.l1dcaches.prefetcher.prefetchers1   138.087800                       # Average occupied blocks per tick, per requestor ((Count/Tick))
board.cache_hierarchy.l1dcaches.tags.occupancies::cache_hierarchy.l1dcaches.prefetcher.prefetchers2   442.734036                       # Average occupied blocks per tick, per requestor ((Count/Tick))
board.cache_hierarchy.l1dcaches.tags.occupancies::processor.cores.core.data   264.494225                       # Average occupied blocks per tick, per requestor ((Count/Tick))
board.cache_hierarchy.l1dcaches.tags.avgOccs::cache_hierarchy.l1dcaches.prefetcher.prefetchers0     0.168437                       # Average percentage of cache occupancy ((Ratio/Tick))
board.cache_hierarchy.l1dcaches.tags.avgOccs::cache_hierarchy.l1dcaches.prefetcher.prefetchers1     0.134851                       # Average percentage of cache occupancy ((Ratio/Tick))
board.cache_hierarchy.l1dcaches.tags.avgOccs::cache_hierarchy.l1dcaches.prefetcher.prefetchers2     0.432357                       # Average percentage of cache occupancy ((Ratio/Tick))
board.cache_hierarchy.l1dcaches.tags.avgOccs::processor.cores.core.data     0.258295                       # Average percentage of cache occupancy ((Ratio/Tick))
board.cache_hierarchy.l1dcaches.tags.avgOccs::total     0.993941                       # Average percentage of cache occupancy ((Ratio/Tick))
board.cache_hierarchy.l1dcaches.tags.occupanciesTaskId::1022          503                       # Occupied blocks per task id (Count)
board.cache_hierarchy.l1dcaches.tags.occupanciesTaskId::1024          521                       # Occupied blocks per task id (Count)
board.cache_hierarchy.l1dcaches.tags.ageTaskId_1022::0          193                       # Occupied blocks per task id, per block age (Count)
board.cache_hierarchy.l1dcaches.tags.ageTaskId_1022::1           46                       # Occupied blocks per task id, per block age (Count)
board.cache_hierarchy.l1dcaches.tags.ageTaskId_1022::2          263                       # Occupied blocks per task id, per block age (Count)
board.cache_hierarchy.l1dcaches.tags.ageTaskId_1022::3            1                       # Occupied blocks per task id, per block age (Count)
board.cache_hierarchy.l1dcaches.tags.ageTaskId_1024::0          184                       # Occupied blocks per task id, per block age (Count)
board.cache_hierarchy.l1dcaches.tags.ageTaskId_1024::1           72                       # Occupied blocks per task id, per block age (Count)
board.cache_hierarchy.l1dcaches.tags.ageTaskId_1024::2          261                       # Occupied blocks per task id, per block age (Count)
board.cache_hierarchy.l1dcaches.tags.ageTaskId_1024::3            4                       # Occupied blocks per task id, per block age (Count)
board.cache_hierarchy.l1dcaches.tags.ratioOccsTaskId::1022     0.491211                       # Ratio of occupied blocks and all blocks, per task id (Ratio)
board.cache_hierarchy.l1dcaches.tags.ratioOccsTaskId::1024     0.508789                       # Ratio of occupied blocks and all blocks, per task id (Ratio)
board.cache_hierarchy.l1dcaches.tags.tagAccesses     42839745                       # Number of tag accesses (Count)
board.cache_hierarchy.l1dcaches.tags.dataAccesses     42839745                       # Number of data accesses (Count)
board.cache_hierarchy.l1dcaches.tags.power_state.pwrStateResidencyTicks::UNDEFINED   4325318352                       # Cumulative time (in ticks) in various power states (Tick)
board.cache_hierarchy.l1icaches.demandHits::processor.cores.core.inst      3979159                       # number of demand (read+write) hits (Count)
board.cache_hierarchy.l1icaches.demandHits::total      3979159                       # number of demand (read+write) hits (Count)
board.cache_hierarchy.l1icaches.overallHits::processor.cores.core.inst      3979159                       # number of overall hits (Count)
board.cache_hierarchy.l1icaches.overallHits::total      3979159                       # number of overall hits (Count)
board.cache_hierarchy.l1icaches.demandMisses::processor.cores.core.inst         1203                       # number of demand (read+write) misses (Count)
board.cache_hierarchy.l1icaches.demandMisses::total         1203                       # number of demand (read+write) misses (Count)
board.cache_hierarchy.l1icaches.overallMisses::processor.cores.core.inst         1203                       # number of overall misses (Count)
board.cache_hierarchy.l1icaches.overallMisses::total         1203                       # number of overall misses (Count)
board.cache_hierarchy.l1icaches.demandMissLatency::processor.cores.core.inst     41794830                       # number of demand (read+write) miss ticks (Tick)
board.cache_hierarchy.l1icaches.demandMissLatency::total     41794830                       # number of demand (read+write) miss ticks (Tick)
board.cache_hierarchy.l1icaches.overallMissLatency::processor.cores.core.inst     41794830                       # number of overall miss ticks (Tick)
board.cache_hierarchy.l1icaches.overallMissLatency::total     41794830                       # number of overall miss ticks (Tick)
board.cache_hierarchy.l1icaches.demandAccesses::processor.cores.core.inst      3980362                       # number of demand (read+write) accesses (Count)
board.cache_hierarchy.l1icaches.demandAccesses::total      3980362                       # number of demand (read+write) accesses (Count)
board.cache_hierarchy.l1icaches.overallAccesses::processor.cores.core.inst      3980362                       # number of overall (read+write) accesses (Count)
board.cache_hierarchy.l1icaches.overallAccesses::total      3980362                       # number of overall (read+write) accesses (Count)
board.cache_hierarchy.l1icaches.demandMissRate::processor.cores.core.inst     0.000302                       # miss rate for demand accesses (Ratio)
board.cache_hierarchy.l1icaches.demandMissRate::total     0.000302                       # miss rate for demand accesses (Ratio)
board.cache_hierarchy.l1icaches.overallMissRate::processor.cores.core.inst     0.000302                       # miss rate for overall accesses (Ratio)
board.cache_hierarchy.l1icaches.overallMissRate::total     0.000302                       # miss rate for overall accesses (Ratio)
board.cache_hierarchy.l1icaches.demandAvgMissLatency::processor.cores.core.inst 34742.169576                       # average overall miss latency in ticks ((Tick/Count))
board.cache_hierarchy.l1icaches.demandAvgMissLatency::total 34742.169576                       # average overall miss latency in ticks ((Tick/Count))
board.cache_hierarchy.l1icaches.overallAvgMissLatency::processor.cores.core.inst 34742.169576                       # average overall miss latency ((Tick/Count))
board.cache_hierarchy.l1icaches.overallAvgMissLatency::total 34742.169576                       # average overall miss latency ((Tick/Count))
board.cache_hierarchy.l1icaches.blockedCycles::no_mshrs          694                       # number of cycles access was blocked (Cycle)
board.cache_hierarchy.l1icaches.blockedCycles::no_wbuffers            0                       # number of cycles access was blocked (Cycle)
board.cache_hierarchy.l1icaches.blockedCycles::no_targets          884                       # number of cycles access was blocked (Cycle)
board.cache_hierarchy.l1icaches.blockedCauses::no_mshrs           19                       # number of times access was blocked (Count)
board.cache_hierarchy.l1icaches.blockedCauses::no_wbuffers            0                       # number of times access was blocked (Count)
board.cache_hierarchy.l1icaches.blockedCauses::no_targets            2                       # number of times access was blocked (Count)
board.cache_hierarchy.l1icaches.avgBlocked::no_mshrs    36.526316                       # average number of cycles each access was blocked ((Cycle/Count))
board.cache_hierarchy.l1icaches.avgBlocked::no_wbuffers          nan                       # average number of cycles each access was blocked ((Cycle/Count))
board.cache_hierarchy.l1icaches.avgBlocked::no_targets          442                       # average number of cycles each access was blocked ((Cycle/Count))
board.cache_hierarchy.l1icaches.writebacks::writebacks         4507                       # number of writebacks (Count)
board.cache_hierarchy.l1icaches.writebacks::total         4507                       # number of writebacks (Count)
board.cache_hierarchy.l1icaches.demandMshrHits::processor.cores.core.inst          775                       # number of demand (read+write) MSHR hits (Count)
board.cache_hierarchy.l1icaches.demandMshrHits::total          775                       # number of demand (read+write) MSHR hits (Count)
board.cache_hierarchy.l1icaches.overallMshrHits::processor.cores.core.inst          775                       # number of overall MSHR hits (Count)
board.cache_hierarchy.l1icaches.overallMshrHits::total          775                       # number of overall MSHR hits (Count)
board.cache_hierarchy.l1icaches.demandMshrMisses::processor.cores.core.inst          428                       # number of demand (read+write) MSHR misses (Count)
board.cache_hierarchy.l1icaches.demandMshrMisses::total          428                       # number of demand (read+write) MSHR misses (Count)
board.cache_hierarchy.l1icaches.overallMshrMisses::processor.cores.core.inst          428                       # number of overall MSHR misses (Count)
board.cache_hierarchy.l1icaches.overallMshrMisses::cache_hierarchy.l1icaches.prefetcher.prefetchers0         4504                       # number of overall MSHR misses (Count)
board.cache_hierarchy.l1icaches.overallMshrMisses::cache_hierarchy.l1icaches.prefetcher.prefetchers1          616                       # number of overall MSHR misses (Count)
board.cache_hierarchy.l1icaches.overallMshrMisses::total         5548                       # number of overall MSHR misses (Count)
board.cache_hierarchy.l1icaches.demandMshrMissLatency::processor.cores.core.inst     24736905                       # number of demand (read+write) MSHR miss ticks (Tick)
board.cache_hierarchy.l1icaches.demandMshrMissLatency::total     24736905                       # number of demand (read+write) MSHR miss ticks (Tick)
board.cache_hierarchy.l1icaches.overallMshrMissLatency::processor.cores.core.inst     24736905                       # number of overall MSHR miss ticks (Tick)
board.cache_hierarchy.l1icaches.overallMshrMissLatency::cache_hierarchy.l1icaches.prefetcher.prefetchers0    282579612                       # number of overall MSHR miss ticks (Tick)
board.cache_hierarchy.l1icaches.overallMshrMissLatency::cache_hierarchy.l1icaches.prefetcher.prefetchers1     30754649                       # number of overall MSHR miss ticks (Tick)
board.cache_hierarchy.l1icaches.overallMshrMissLatency::total    338071166                       # number of overall MSHR miss ticks (Tick)
board.cache_hierarchy.l1icaches.demandMshrMissRate::processor.cores.core.inst     0.000108                       # mshr miss ratio for demand accesses (Ratio)
board.cache_hierarchy.l1icaches.demandMshrMissRate::total     0.000108                       # mshr miss ratio for demand accesses (Ratio)
board.cache_hierarchy.l1icaches.overallMshrMissRate::processor.cores.core.inst     0.000108                       # mshr miss ratio for overall accesses (Ratio)
board.cache_hierarchy.l1icaches.overallMshrMissRate::cache_hierarchy.l1icaches.prefetcher.prefetchers0          inf                       # mshr miss ratio for overall accesses (Ratio)
board.cache_hierarchy.l1icaches.overallMshrMissRate::cache_hierarchy.l1icaches.prefetcher.prefetchers1          inf                       # mshr miss ratio for overall accesses (Ratio)
board.cache_hierarchy.l1icaches.overallMshrMissRate::total     0.001394                       # mshr miss ratio for overall accesses (Ratio)
board.cache_hierarchy.l1icaches.demandAvgMshrMissLatency::processor.cores.core.inst 57796.507009                       # average overall mshr miss latency ((Tick/Count))
board.cache_hierarchy.l1icaches.demandAvgMshrMissLatency::total 57796.507009                       # average overall mshr miss latency ((Tick/Count))
board.cache_hierarchy.l1icaches.overallAvgMshrMissLatency::processor.cores.core.inst 57796.507009                       # average overall mshr miss latency ((Tick/Count))
board.cache_hierarchy.l1icaches.overallAvgMshrMissLatency::cache_hierarchy.l1icaches.prefetcher.prefetchers0 62739.700710                       # average overall mshr miss latency ((Tick/Count))
board.cache_hierarchy.l1icaches.overallAvgMshrMissLatency::cache_hierarchy.l1icaches.prefetcher.prefetchers1 49926.378247                       # average overall mshr miss latency ((Tick/Count))
board.cache_hierarchy.l1icaches.overallAvgMshrMissLatency::total 60935.682408                       # average overall mshr miss latency ((Tick/Count))
board.cache_hierarchy.l1icaches.replacements         4507                       # number of replacements (Count)
board.cache_hierarchy.l1icaches.HardPFReq.mshrMisses::cache_hierarchy.l1icaches.prefetcher.prefetchers0         4504                       # number of HardPFReq MSHR misses (Count)
board.cache_hierarchy.l1icaches.HardPFReq.mshrMisses::cache_hierarchy.l1icaches.prefetcher.prefetchers1          616                       # number of HardPFReq MSHR misses (Count)
board.cache_hierarchy.l1icaches.HardPFReq.mshrMisses::total         5120                       # number of HardPFReq MSHR misses (Count)
board.cache_hierarchy.l1icaches.HardPFReq.mshrMissLatency::cache_hierarchy.l1icaches.prefetcher.prefetchers0    282579612                       # number of HardPFReq MSHR miss ticks (Tick)
board.cache_hierarchy.l1icaches.HardPFReq.mshrMissLatency::cache_hierarchy.l1icaches.prefetcher.prefetchers1     30754649                       # number of HardPFReq MSHR miss ticks (Tick)
board.cache_hierarchy.l1icaches.HardPFReq.mshrMissLatency::total    313334261                       # number of HardPFReq MSHR miss ticks (Tick)
board.cache_hierarchy.l1icaches.HardPFReq.mshrMissRate::cache_hierarchy.l1icaches.prefetcher.prefetchers0          inf                       # mshr miss rate for HardPFReq accesses (Ratio)
board.cache_hierarchy.l1icaches.HardPFReq.mshrMissRate::cache_hierarchy.l1icaches.prefetcher.prefetchers1          inf                       # mshr miss rate for HardPFReq accesses (Ratio)
board.cache_hierarchy.l1icaches.HardPFReq.mshrMissRate::total          inf                       # mshr miss rate for HardPFReq accesses (Ratio)
board.cache_hierarchy.l1icaches.HardPFReq.avgMshrMissLatency::cache_hierarchy.l1icaches.prefetcher.prefetchers0 62739.700710                       # average HardPFReq mshr miss latency ((Tick/Count))
board.cache_hierarchy.l1icaches.HardPFReq.avgMshrMissLatency::cache_hierarchy.l1icaches.prefetcher.prefetchers1 49926.378247                       # average HardPFReq mshr miss latency ((Tick/Count))
board.cache_hierarchy.l1icaches.HardPFReq.avgMshrMissLatency::total 61198.097852                       # average HardPFReq mshr miss latency ((Tick/Count))
board.cache_hierarchy.l1icaches.ReadReq.hits::processor.cores.core.inst      3979159                       # number of ReadReq hits (Count)
board.cache_hierarchy.l1icaches.ReadReq.hits::total      3979159                       # number of ReadReq hits (Count)
board.cache_hierarchy.l1icaches.ReadReq.misses::processor.cores.core.inst         1203                       # number of ReadReq misses (Count)
board.cache_hierarchy.l1icaches.ReadReq.misses::total         1203                       # number of ReadReq misses (Count)
board.cache_hierarchy.l1icaches.ReadReq.missLatency::processor.cores.core.inst     41794830                       # number of ReadReq miss ticks (Tick)
board.cache_hierarchy.l1icaches.ReadReq.missLatency::total     41794830                       # number of ReadReq miss ticks (Tick)
board.cache_hierarchy.l1icaches.ReadReq.accesses::processor.cores.core.inst      3980362                       # number of ReadReq accesses(hits+misses) (Count)
board.cache_hierarchy.l1icaches.ReadReq.accesses::total      3980362                       # number of ReadReq accesses(hits+misses) (Count)
board.cache_hierarchy.l1icaches.ReadReq.missRate::processor.cores.core.inst     0.000302                       # miss rate for ReadReq accesses (Ratio)
board.cache_hierarchy.l1icaches.ReadReq.missRate::total     0.000302                       # miss rate for ReadReq accesses (Ratio)
board.cache_hierarchy.l1icaches.ReadReq.avgMissLatency::processor.cores.core.inst 34742.169576                       # average ReadReq miss latency ((Tick/Count))
board.cache_hierarchy.l1icaches.ReadReq.avgMissLatency::total 34742.169576                       # average ReadReq miss latency ((Tick/Count))
board.cache_hierarchy.l1icaches.ReadReq.mshrHits::processor.cores.core.inst          775                       # number of ReadReq MSHR hits (Count)
board.cache_hierarchy.l1icaches.ReadReq.mshrHits::total          775                       # number of ReadReq MSHR hits (Count)
board.cache_hierarchy.l1icaches.ReadReq.mshrMisses::processor.cores.core.inst          428                       # number of ReadReq MSHR misses (Count)
board.cache_hierarchy.l1icaches.ReadReq.mshrMisses::total          428                       # number of ReadReq MSHR misses (Count)
board.cache_hierarchy.l1icaches.ReadReq.mshrMissLatency::processor.cores.core.inst     24736905                       # number of ReadReq MSHR miss ticks (Tick)
board.cache_hierarchy.l1icaches.ReadReq.mshrMissLatency::total     24736905                       # number of ReadReq MSHR miss ticks (Tick)
board.cache_hierarchy.l1icaches.ReadReq.mshrMissRate::processor.cores.core.inst     0.000108                       # mshr miss rate for ReadReq accesses (Ratio)
board.cache_hierarchy.l1icaches.ReadReq.mshrMissRate::total     0.000108                       # mshr miss rate for ReadReq accesses (Ratio)
board.cache_hierarchy.l1icaches.ReadReq.avgMshrMissLatency::processor.cores.core.inst 57796.507009                       # average ReadReq mshr miss latency ((Tick/Count))
board.cache_hierarchy.l1icaches.ReadReq.avgMshrMissLatency::total 57796.507009                       # average ReadReq mshr miss latency ((Tick/Count))
board.cache_hierarchy.l1icaches.power_state.pwrStateResidencyTicks::UNDEFINED   4325318352                       # Cumulative time (in ticks) in various power states (Tick)
board.cache_hierarchy.l1icaches.prefetcher.demandMshrMisses            0                       # demands not covered by prefetchs (Count)
board.cache_hierarchy.l1icaches.prefetcher.pfIssued         7436                       # number of hwpf issued (Count)
board.cache_hierarchy.l1icaches.prefetcher.pfUseful            0                       # number of useful prefetch (Count)
board.cache_hierarchy.l1icaches.prefetcher.pfUsefulButMiss            0                       # number of hit on prefetch but cache block is not in an usable state (Count)
board.cache_hierarchy.l1icaches.prefetcher.accuracy            0                       # accuracy of the prefetcher (Count)
board.cache_hierarchy.l1icaches.prefetcher.coverage          nan                       # coverage brought by this prefetcher (Count)
board.cache_hierarchy.l1icaches.prefetcher.pfHitInCache          635                       # number of prefetches hitting in cache (Count)
board.cache_hierarchy.l1icaches.prefetcher.pfHitInMSHR         1681                       # number of prefetches hitting in a MSHR (Count)
board.cache_hierarchy.l1icaches.prefetcher.pfHitInWB            0                       # number of prefetches hit in the Write Buffer (Count)
board.cache_hierarchy.l1icaches.prefetcher.pfLate         2316                       # number of late prefetches (hitting in cache, MSHR or WB) (Count)
board.cache_hierarchy.l1icaches.prefetcher.power_state.pwrStateResidencyTicks::UNDEFINED   4325318352                       # Cumulative time (in ticks) in various power states (Tick)
board.cache_hierarchy.l1icaches.prefetcher.prefetchers0.demandMshrMisses          428                       # demands not covered by prefetchs (Count)
board.cache_hierarchy.l1icaches.prefetcher.prefetchers0.pfIssued         5176                       # number of hwpf issued (Count)
board.cache_hierarchy.l1icaches.prefetcher.prefetchers0.pfUnused         2899                       # number of HardPF blocks evicted w/o reference (Count)
board.cache_hierarchy.l1icaches.prefetcher.prefetchers0.pfUseful         1021                       # number of useful prefetch (Count)
board.cache_hierarchy.l1icaches.prefetcher.prefetchers0.pfUsefulButMiss            0                       # number of hit on prefetch but cache block is not in an usable state (Count)
board.cache_hierarchy.l1icaches.prefetcher.prefetchers0.accuracy     0.197257                       # accuracy of the prefetcher (Count)
board.cache_hierarchy.l1icaches.prefetcher.prefetchers0.coverage     0.704624                       # coverage brought by this prefetcher (Count)
board.cache_hierarchy.l1icaches.prefetcher.prefetchers0.pfHitInCache            0                       # number of prefetches hitting in cache (Count)
board.cache_hierarchy.l1icaches.prefetcher.prefetchers0.pfHitInMSHR            0                       # number of prefetches hitting in a MSHR (Count)
board.cache_hierarchy.l1icaches.prefetcher.prefetchers0.pfHitInWB            0                       # number of prefetches hit in the Write Buffer (Count)
board.cache_hierarchy.l1icaches.prefetcher.prefetchers0.pfLate            0                       # number of late prefetches (hitting in cache, MSHR or WB) (Count)
board.cache_hierarchy.l1icaches.prefetcher.prefetchers0.fdipInsertions            0                       # Number of notifications from an insertion in the FTQ (Count)
board.cache_hierarchy.l1icaches.prefetcher.prefetchers0.pfIdentified     15500346                       # Number of prefetches identified. (Count)
board.cache_hierarchy.l1icaches.prefetcher.prefetchers0.pfSquashed        20156                       # Number of prefetches squashed. (Count)
board.cache_hierarchy.l1icaches.prefetcher.prefetchers0.pfInPFQ        21887                       # Number of prefetches hit in the prefetch queue (Count)
board.cache_hierarchy.l1icaches.prefetcher.prefetchers0.pfInTQ            0                       # Number of prefetches hit in the translation queue (Count)
board.cache_hierarchy.l1icaches.prefetcher.prefetchers0.pfInCache     15473375                       # Number of prefetches hit in in cache (Count)
board.cache_hierarchy.l1icaches.prefetcher.prefetchers0.pfInCachePrefetched            0                       # Number of prefetches hit in cache but prefetched (Count)
board.cache_hierarchy.l1icaches.prefetcher.prefetchers0.pfPacketsCreated        25339                       # Number of prefetch packets created (Count)
board.cache_hierarchy.l1icaches.prefetcher.prefetchers0.pfCandidatesAdded        25339                       # Number of prefetch candidates added to the prefetch queue (Count)
board.cache_hierarchy.l1icaches.prefetcher.prefetchers0.translationFail         1632                       # Number of prefetches that failed translation (Count)
board.cache_hierarchy.l1icaches.prefetcher.prefetchers0.translationSuccess     15498714                       # Number of prefetches that succeeded translation (Count)
board.cache_hierarchy.l1icaches.prefetcher.prefetchers0.pfqSizeDistAtNotify::samples     15500346                       # Distribution of the prefetch queue size at the time of notification of a new fetch target (Count)
board.cache_hierarchy.l1icaches.prefetcher.prefetchers0.pfqSizeDistAtNotify::mean     0.023437                       # Distribution of the prefetch queue size at the time of notification of a new fetch target (Count)
board.cache_hierarchy.l1icaches.prefetcher.prefetchers0.pfqSizeDistAtNotify::stdev     0.638940                       # Distribution of the prefetch queue size at the time of notification of a new fetch target (Count)
board.cache_hierarchy.l1icaches.prefetcher.prefetchers0.pfqSizeDistAtNotify::underflows            0      0.00%      0.00% # Distribution of the prefetch queue size at the time of notification of a new fetch target (Count)
board.cache_hierarchy.l1icaches.prefetcher.prefetchers0.pfqSizeDistAtNotify::0-3     15475246     99.84%     99.84% # Distribution of the prefetch queue size at the time of notification of a new fetch target (Count)
board.cache_hierarchy.l1icaches.prefetcher.prefetchers0.pfqSizeDistAtNotify::4-7         6515      0.04%     99.88% # Distribution of the prefetch queue size at the time of notification of a new fetch target (Count)
board.cache_hierarchy.l1icaches.prefetcher.prefetchers0.pfqSizeDistAtNotify::8-11         5082      0.03%     99.91% # Distribution of the prefetch queue size at the time of notification of a new fetch target (Count)
board.cache_hierarchy.l1icaches.prefetcher.prefetchers0.pfqSizeDistAtNotify::12-15         4151      0.03%     99.94% # Distribution of the prefetch queue size at the time of notification of a new fetch target (Count)
board.cache_hierarchy.l1icaches.prefetcher.prefetchers0.pfqSizeDistAtNotify::16-19         3314      0.02%     99.96% # Distribution of the prefetch queue size at the time of notification of a new fetch target (Count)
board.cache_hierarchy.l1icaches.prefetcher.prefetchers0.pfqSizeDistAtNotify::20-23         2619      0.02%     99.98% # Distribution of the prefetch queue size at the time of notification of a new fetch target (Count)
board.cache_hierarchy.l1icaches.prefetcher.prefetchers0.pfqSizeDistAtNotify::24-27         1801      0.01%     99.99% # Distribution of the prefetch queue size at the time of notification of a new fetch target (Count)
board.cache_hierarchy.l1icaches.prefetcher.prefetchers0.pfqSizeDistAtNotify::28-31         1075      0.01%    100.00% # Distribution of the prefetch queue size at the time of notification of a new fetch target (Count)
board.cache_hierarchy.l1icaches.prefetcher.prefetchers0.pfqSizeDistAtNotify::32-35          543      0.00%    100.00% # Distribution of the prefetch queue size at the time of notification of a new fetch target (Count)
board.cache_hierarchy.l1icaches.prefetcher.prefetchers0.pfqSizeDistAtNotify::36-39            0      0.00%    100.00% # Distribution of the prefetch queue size at the time of notification of a new fetch target (Count)
board.cache_hierarchy.l1icaches.prefetcher.prefetchers0.pfqSizeDistAtNotify::40-43            0      0.00%    100.00% # Distribution of the prefetch queue size at the time of notification of a new fetch target (Count)
board.cache_hierarchy.l1icaches.prefetcher.prefetchers0.pfqSizeDistAtNotify::44-47            0      0.00%    100.00% # Distribution of the prefetch queue size at the time of notification of a new fetch target (Count)
board.cache_hierarchy.l1icaches.prefetcher.prefetchers0.pfqSizeDistAtNotify::48-51            0      0.00%    100.00% # Distribution of the prefetch queue size at the time of notification of a new fetch target (Count)
board.cache_hierarchy.l1icaches.prefetcher.prefetchers0.pfqSizeDistAtNotify::52-55            0      0.00%    100.00% # Distribution of the prefetch queue size at the time of notification of a new fetch target (Count)
board.cache_hierarchy.l1icaches.prefetcher.prefetchers0.pfqSizeDistAtNotify::56-59            0      0.00%    100.00% # Distribution of the prefetch queue size at the time of notification of a new fetch target (Count)
board.cache_hierarchy.l1icaches.prefetcher.prefetchers0.pfqSizeDistAtNotify::60-63            0      0.00%    100.00% # Distribution of the prefetch queue size at the time of notification of a new fetch target (Count)
board.cache_hierarchy.l1icaches.prefetcher.prefetchers0.pfqSizeDistAtNotify::64            0      0.00%    100.00% # Distribution of the prefetch queue size at the time of notification of a new fetch target (Count)
board.cache_hierarchy.l1icaches.prefetcher.prefetchers0.pfqSizeDistAtNotify::overflows            0      0.00%    100.00% # Distribution of the prefetch queue size at the time of notification of a new fetch target (Count)
board.cache_hierarchy.l1icaches.prefetcher.prefetchers0.pfqSizeDistAtNotify::min_value            0                       # Distribution of the prefetch queue size at the time of notification of a new fetch target (Count)
board.cache_hierarchy.l1icaches.prefetcher.prefetchers0.pfqSizeDistAtNotify::max_value           35                       # Distribution of the prefetch queue size at the time of notification of a new fetch target (Count)
board.cache_hierarchy.l1icaches.prefetcher.prefetchers0.pfqSizeDistAtNotify::total     15500346                       # Distribution of the prefetch queue size at the time of notification of a new fetch target (Count)
board.cache_hierarchy.l1icaches.prefetcher.prefetchers0.tqSizeDistAtNotify::samples     15500346                       # Distribution of the translation queue size at the time of notification of a new fetch target (Count)
board.cache_hierarchy.l1icaches.prefetcher.prefetchers0.tqSizeDistAtNotify::mean            0                       # Distribution of the translation queue size at the time of notification of a new fetch target (Count)
board.cache_hierarchy.l1icaches.prefetcher.prefetchers0.tqSizeDistAtNotify::stdev            0                       # Distribution of the translation queue size at the time of notification of a new fetch target (Count)
board.cache_hierarchy.l1icaches.prefetcher.prefetchers0.tqSizeDistAtNotify::underflows            0      0.00%      0.00% # Distribution of the translation queue size at the time of notification of a new fetch target (Count)
board.cache_hierarchy.l1icaches.prefetcher.prefetchers0.tqSizeDistAtNotify::0-3     15500346    100.00%    100.00% # Distribution of the translation queue size at the time of notification of a new fetch target (Count)
board.cache_hierarchy.l1icaches.prefetcher.prefetchers0.tqSizeDistAtNotify::4-7            0      0.00%    100.00% # Distribution of the translation queue size at the time of notification of a new fetch target (Count)
board.cache_hierarchy.l1icaches.prefetcher.prefetchers0.tqSizeDistAtNotify::8-11            0      0.00%    100.00% # Distribution of the translation queue size at the time of notification of a new fetch target (Count)
board.cache_hierarchy.l1icaches.prefetcher.prefetchers0.tqSizeDistAtNotify::12-15            0      0.00%    100.00% # Distribution of the translation queue size at the time of notification of a new fetch target (Count)
board.cache_hierarchy.l1icaches.prefetcher.prefetchers0.tqSizeDistAtNotify::16-19            0      0.00%    100.00% # Distribution of the translation queue size at the time of notification of a new fetch target (Count)
board.cache_hierarchy.l1icaches.prefetcher.prefetchers0.tqSizeDistAtNotify::20-23            0      0.00%    100.00% # Distribution of the translation queue size at the time of notification of a new fetch target (Count)
board.cache_hierarchy.l1icaches.prefetcher.prefetchers0.tqSizeDistAtNotify::24-27            0      0.00%    100.00% # Distribution of the translation queue size at the time of notification of a new fetch target (Count)
board.cache_hierarchy.l1icaches.prefetcher.prefetchers0.tqSizeDistAtNotify::28-31            0      0.00%    100.00% # Distribution of the translation queue size at the time of notification of a new fetch target (Count)
board.cache_hierarchy.l1icaches.prefetcher.prefetchers0.tqSizeDistAtNotify::32-35            0      0.00%    100.00% # Distribution of the translation queue size at the time of notification of a new fetch target (Count)
board.cache_hierarchy.l1icaches.prefetcher.prefetchers0.tqSizeDistAtNotify::36-39            0      0.00%    100.00% # Distribution of the translation queue size at the time of notification of a new fetch target (Count)
board.cache_hierarchy.l1icaches.prefetcher.prefetchers0.tqSizeDistAtNotify::40-43            0      0.00%    100.00% # Distribution of the translation queue size at the time of notification of a new fetch target (Count)
board.cache_hierarchy.l1icaches.prefetcher.prefetchers0.tqSizeDistAtNotify::44-47            0      0.00%    100.00% # Distribution of the translation queue size at the time of notification of a new fetch target (Count)
board.cache_hierarchy.l1icaches.prefetcher.prefetchers0.tqSizeDistAtNotify::48-51            0      0.00%    100.00% # Distribution of the translation queue size at the time of notification of a new fetch target (Count)
board.cache_hierarchy.l1icaches.prefetcher.prefetchers0.tqSizeDistAtNotify::52-55            0      0.00%    100.00% # Distribution of the translation queue size at the time of notification of a new fetch target (Count)
board.cache_hierarchy.l1icaches.prefetcher.prefetchers0.tqSizeDistAtNotify::56-59            0      0.00%    100.00% # Distribution of the translation queue size at the time of notification of a new fetch target (Count)
board.cache_hierarchy.l1icaches.prefetcher.prefetchers0.tqSizeDistAtNotify::60-63            0      0.00%    100.00% # Distribution of the translation queue size at the time of notification of a new fetch target (Count)
board.cache_hierarchy.l1icaches.prefetcher.prefetchers0.tqSizeDistAtNotify::64            0      0.00%    100.00% # Distribution of the translation queue size at the time of notification of a new fetch target (Count)
board.cache_hierarchy.l1icaches.prefetcher.prefetchers0.tqSizeDistAtNotify::overflows            0      0.00%    100.00% # Distribution of the translation queue size at the time of notification of a new fetch target (Count)
board.cache_hierarchy.l1icaches.prefetcher.prefetchers0.tqSizeDistAtNotify::min_value            0                       # Distribution of the translation queue size at the time of notification of a new fetch target (Count)
board.cache_hierarchy.l1icaches.prefetcher.prefetchers0.tqSizeDistAtNotify::max_value            0                       # Distribution of the translation queue size at the time of notification of a new fetch target (Count)
board.cache_hierarchy.l1icaches.prefetcher.prefetchers0.tqSizeDistAtNotify::total     15500346                       # Distribution of the translation queue size at the time of notification of a new fetch target (Count)
board.cache_hierarchy.l1icaches.prefetcher.prefetchers0.pfqInserts        25339                       # Number of insertions into the prefetch candidate queue (Count)
board.cache_hierarchy.l1icaches.prefetcher.prefetchers0.pfqPops         5176                       # Number of uses into the prefetch candidate queue (Count)
board.cache_hierarchy.l1icaches.prefetcher.prefetchers0.pfqDrops            0                       # Number of drops into the prefetch candidate queue (Count)
board.cache_hierarchy.l1icaches.prefetcher.prefetchers0.tqInserts     15500346                       # Number of insertions into the prefetch translation queue (Count)
board.cache_hierarchy.l1icaches.prefetcher.prefetchers0.tqPops     15500346                       # Number of uses into the prefetch translation queue (Count)
board.cache_hierarchy.l1icaches.prefetcher.prefetchers0.tqDrops            0                       # Number of drops into the prefetch translation queue (Count)
board.cache_hierarchy.l1icaches.prefetcher.prefetchers0.power_state.pwrStateResidencyTicks::UNDEFINED   4325318352                       # Cumulative time (in ticks) in various power states (Tick)
board.cache_hierarchy.l1icaches.prefetcher.prefetchers1.demandMshrMisses          428                       # demands not covered by prefetchs (Count)
board.cache_hierarchy.l1icaches.prefetcher.prefetchers1.pfIssued         2260                       # number of hwpf issued (Count)
board.cache_hierarchy.l1icaches.prefetcher.prefetchers1.pfUnused         2899                       # number of HardPF blocks evicted w/o reference (Count)
board.cache_hierarchy.l1icaches.prefetcher.prefetchers1.pfUseful          260                       # number of useful prefetch (Count)
board.cache_hierarchy.l1icaches.prefetcher.prefetchers1.pfUsefulButMiss            0                       # number of hit on prefetch but cache block is not in an usable state (Count)
board.cache_hierarchy.l1icaches.prefetcher.prefetchers1.accuracy     0.115044                       # accuracy of the prefetcher (Count)
board.cache_hierarchy.l1icaches.prefetcher.prefetchers1.coverage     0.377907                       # coverage brought by this prefetcher (Count)
board.cache_hierarchy.l1icaches.prefetcher.prefetchers1.pfHitInCache            0                       # number of prefetches hitting in cache (Count)
board.cache_hierarchy.l1icaches.prefetcher.prefetchers1.pfHitInMSHR            0                       # number of prefetches hitting in a MSHR (Count)
[...]
board.processor.cores.core.lsq0.loadToUse::90-99          156      0.00%     99.91% # Distribution of cycle latency between the first time a load is issued and its completion (Cycle)
board.processor.cores.core.lsq0.loadToUse::100-109          106      0.00%     99.91% # Distribution of cycle latency between the first time a load is issued and its completion (Cycle)
board.processor.cores.core.lsq0.loadToUse::110-119          148      0.00%     99.92% # Distribution of cycle latency between the first time a load is issued and its completion (Cycle)
board.processor.cores.core.lsq0.loadToUse::120-129          225      0.01%     99.92% # Distribution of cycle latency between the first time a load is issued and its completion (Cycle)
board.processor.cores.core.lsq0.loadToUse::130-139          185      0.01%     99.93% # Distribution of cycle latency between the first time a load is issued and its completion (Cycle)
board.processor.cores.core.lsq0.loadToUse::140-149          159      0.00%     99.93% # Distribution of cycle latency between the first time a load is issued and its completion (Cycle)
board.processor.cores.core.lsq0.loadToUse::150-159          332      0.01%     99.94% # Distribution of cycle latency between the first time a load is issued and its completion (Cycle)
board.processor.cores.core.lsq0.loadToUse::160-169          567      0.02%     99.96% # Distribution of cycle latency between the first time a load is issued and its completion (Cycle)
board.processor.cores.core.lsq0.loadToUse::170-179           74      0.00%     99.96% # Distribution of cycle latency between the first time a load is issued and its completion (Cycle)
board.processor.cores.core.lsq0.loadToUse::180-189           83      0.00%     99.97% # Distribution of cycle latency between the first time a load is issued and its completion (Cycle)
board.processor.cores.core.lsq0.loadToUse::190-199           68      0.00%     99.97% # Distribution of cycle latency between the first time a load is issued and its completion (Cycle)
board.processor.cores.core.lsq0.loadToUse::200-209          104      0.00%     99.97% # Distribution of cycle latency between the first time a load is issued and its completion (Cycle)
board.processor.cores.core.lsq0.loadToUse::210-219          134      0.00%     99.98% # Distribution of cycle latency between the first time a load is issued and its completion (Cycle)
board.processor.cores.core.lsq0.loadToUse::220-229           60      0.00%     99.98% # Distribution of cycle latency between the first time a load is issued and its completion (Cycle)
board.processor.cores.core.lsq0.loadToUse::230-239           96      0.00%     99.98% # Distribution of cycle latency between the first time a load is issued and its completion (Cycle)
board.processor.cores.core.lsq0.loadToUse::240-249           83      0.00%     99.98% # Distribution of cycle latency between the first time a load is issued and its completion (Cycle)
board.processor.cores.core.lsq0.loadToUse::250-259          133      0.00%     99.99% # Distribution of cycle latency between the first time a load is issued and its completion (Cycle)
board.processor.cores.core.lsq0.loadToUse::260-269           67      0.00%     99.99% # Distribution of cycle latency between the first time a load is issued and its completion (Cycle)
board.processor.cores.core.lsq0.loadToUse::270-279           25      0.00%     99.99% # Distribution of cycle latency between the first time a load is issued and its completion (Cycle)
board.processor.cores.core.lsq0.loadToUse::280-289           33      0.00%     99.99% # Distribution of cycle latency between the first time a load is issued and its completion (Cycle)
board.processor.cores.core.lsq0.loadToUse::290-299           52      0.00%     99.99% # Distribution of cycle latency between the first time a load is issued and its completion (Cycle)
board.processor.cores.core.lsq0.loadToUse::overflows          244      0.01%    100.00% # Distribution of cycle latency between the first time a load is issued and its completion (Cycle)
board.processor.cores.core.lsq0.loadToUse::min_value            2                       # Distribution of cycle latency between the first time a load is issued and its completion (Cycle)
board.processor.cores.core.lsq0.loadToUse::max_value         1339                       # Distribution of cycle latency between the first time a load is issued and its completion (Cycle)
board.processor.cores.core.lsq0.loadToUse::total      3279696                       # Distribution of cycle latency between the first time a load is issued and its completion (Cycle)
board.processor.cores.core.lsq0.addedLoadsAndStores      7457292                       # Number of loads and stores written to the Load Store Queue (Count)
board.processor.cores.core.lsq0.lqAvgOccupancy         0.05                       # Average LQ Occupancy (UsedSlots/TotalSlots) (Ratio)
board.processor.cores.core.lsq0.sqAvgOccupancy         0.06                       # Average SQ Occupancy (UsedSlots/TotalSlots) (Ratio)
board.processor.cores.core.mmu.alignFaults            0                       # Number of MMU faults due to alignment restrictions (Count)
board.processor.cores.core.mmu.prefetchFaults            0                       # Number of MMU faults due to prefetch (Count)
board.processor.cores.core.mmu.domainFaults            0                       # Number of MMU faults due to domain restrictions (Count)
board.processor.cores.core.mmu.permsFaults            0                       # Number of MMU faults due to permissions restrictions (Count)
board.processor.cores.core.mmu.dtb.readHits            0                       # Read hits (Count)
board.processor.cores.core.mmu.dtb.readMisses            0                       # Read misses (Count)
board.processor.cores.core.mmu.dtb.writeHits            0                       # Write hits (Count)
board.processor.cores.core.mmu.dtb.writeMisses            0                       # Write misses (Count)
board.processor.cores.core.mmu.dtb.inserts            0                       # Number of times an entry is inserted into the TLB (Count)
board.processor.cores.core.mmu.dtb.flushTlb            2                       # Number of times a TLB invalidation was requested (Count)
board.processor.cores.core.mmu.dtb.flushedEntries            0                       # Number of entries that have been flushed from TLB (Count)
board.processor.cores.core.mmu.dtb.readAccesses            0                       # Read accesses (Count)
board.processor.cores.core.mmu.dtb.writeAccesses            0                       # Write accesses (Count)
board.processor.cores.core.mmu.dtb.hits             0                       # Total TLB (inst and data) hits (Count)
board.processor.cores.core.mmu.dtb.misses            0                       # Total TLB (inst and data) misses (Count)
board.processor.cores.core.mmu.dtb.accesses            0                       # Total TLB (inst and data) accesses (Count)
board.processor.cores.core.mmu.itb.instHits            0                       # Inst hits (Count)
board.processor.cores.core.mmu.itb.instMisses            0                       # Inst misses (Count)
board.processor.cores.core.mmu.itb.inserts            0                       # Number of times an entry is inserted into the TLB (Count)
board.processor.cores.core.mmu.itb.flushTlb            2                       # Number of times a TLB invalidation was requested (Count)
board.processor.cores.core.mmu.itb.flushedEntries            0                       # Number of entries that have been flushed from TLB (Count)
board.processor.cores.core.mmu.itb.instAccesses            0                       # Inst accesses (Count)
board.processor.cores.core.mmu.itb.hits             0                       # Total TLB (inst and data) hits (Count)
board.processor.cores.core.mmu.itb.misses            0                       # Total TLB (inst and data) misses (Count)
board.processor.cores.core.mmu.itb.accesses            0                       # Total TLB (inst and data) accesses (Count)
board.processor.cores.core.mmu.l2_shared.instHits            0                       # Inst hits (Count)
board.processor.cores.core.mmu.l2_shared.instMisses            0                       # Inst misses (Count)
board.processor.cores.core.mmu.l2_shared.inserts            0                       # Number of times an entry is inserted into the TLB (Count)
board.processor.cores.core.mmu.l2_shared.flushTlb            0                       # Number of times a TLB invalidation was requested (Count)
board.processor.cores.core.mmu.l2_shared.flushedEntries            0                       # Number of entries that have been flushed from TLB (Count)
board.processor.cores.core.mmu.l2_shared.instAccesses            0                       # Inst accesses (Count)
board.processor.cores.core.mmu.l2_shared.hits            0                       # Total TLB (inst and data) hits (Count)
board.processor.cores.core.mmu.l2_shared.misses            0                       # Total TLB (inst and data) misses (Count)
board.processor.cores.core.mmu.l2_shared.accesses            0                       # Total TLB (inst and data) accesses (Count)
board.processor.cores.core.mmu.stage2_dtb.readHits            0                       # Read hits (Count)
board.processor.cores.core.mmu.stage2_dtb.readMisses            0                       # Read misses (Count)
board.processor.cores.core.mmu.stage2_dtb.writeHits            0                       # Write hits (Count)
board.processor.cores.core.mmu.stage2_dtb.writeMisses            0                       # Write misses (Count)
board.processor.cores.core.mmu.stage2_dtb.inserts            0                       # Number of times an entry is inserted into the TLB (Count)
board.processor.cores.core.mmu.stage2_dtb.flushTlb            2                       # Number of times a TLB invalidation was requested (Count)
board.processor.cores.core.mmu.stage2_dtb.flushedEntries            0                       # Number of entries that have been flushed from TLB (Count)
board.processor.cores.core.mmu.stage2_dtb.readAccesses            0                       # Read accesses (Count)
board.processor.cores.core.mmu.stage2_dtb.writeAccesses            0                       # Write accesses (Count)
board.processor.cores.core.mmu.stage2_dtb.hits            0                       # Total TLB (inst and data) hits (Count)
board.processor.cores.core.mmu.stage2_dtb.misses            0                       # Total TLB (inst and data) misses (Count)
board.processor.cores.core.mmu.stage2_dtb.accesses            0                       # Total TLB (inst and data) accesses (Count)
board.processor.cores.core.mmu.stage2_itb.instHits            0                       # Inst hits (Count)
board.processor.cores.core.mmu.stage2_itb.instMisses            0                       # Inst misses (Count)
board.processor.cores.core.mmu.stage2_itb.inserts            0                       # Number of times an entry is inserted into the TLB (Count)
board.processor.cores.core.mmu.stage2_itb.flushTlb            2                       # Number of times a TLB invalidation was requested (Count)
board.processor.cores.core.mmu.stage2_itb.flushedEntries            0                       # Number of entries that have been flushed from TLB (Count)
board.processor.cores.core.mmu.stage2_itb.instAccesses            0                       # Inst accesses (Count)
board.processor.cores.core.mmu.stage2_itb.hits            0                       # Total TLB (inst and data) hits (Count)
board.processor.cores.core.mmu.stage2_itb.misses            0                       # Total TLB (inst and data) misses (Count)
board.processor.cores.core.mmu.stage2_itb.accesses            0                       # Total TLB (inst and data) accesses (Count)
board.processor.cores.core.mmu.walker.instructionWalksS1            0                       # Table walker stage 1 instruction walks requested (Count)
board.processor.cores.core.mmu.walker.instructionWalksS2            0                       # Table walker stage 2 instruction walks requested (Count)
board.processor.cores.core.mmu.walker.dataWalksS1            0                       # Table walker stage 1 data walks requested (Count)
board.processor.cores.core.mmu.walker.dataWalksS2            0                       # Table walker stage 2 data walks requested (Count)
board.processor.cores.core.mmu.walker.requestOrigin_Requested::Data            0                       # Table walker requests started/completed, data/inst (Count)
board.processor.cores.core.mmu.walker.requestOrigin_Requested::Inst            0                       # Table walker requests started/completed, data/inst (Count)
board.processor.cores.core.mmu.walker.requestOrigin_Requested::total            0                       # Table walker requests started/completed, data/inst (Count)
board.processor.cores.core.mmu.walker.requestOrigin_Completed::Data            0                       # Table walker requests started/completed, data/inst (Count)
board.processor.cores.core.mmu.walker.requestOrigin_Completed::Inst            0                       # Table walker requests started/completed, data/inst (Count)
board.processor.cores.core.mmu.walker.requestOrigin_Completed::total            0                       # Table walker requests started/completed, data/inst (Count)
board.processor.cores.core.mmu.walker.requestOrigin::total            0                       # Table walker requests started/completed, data/inst (Count)
board.processor.cores.core.mmu.walker.walks            0                       # Table walker walks requested (Count)
board.processor.cores.core.mmu.walker.power_state.pwrStateResidencyTicks::UNDEFINED   4325318352                       # Cumulative time (in ticks) in various power states (Tick)
board.processor.cores.core.mmu.walker.walk_unit_func_s1.power_state.pwrStateResidencyTicks::UNDEFINED   4325318352                       # Cumulative time (in ticks) in various power states (Tick)
board.processor.cores.core.mmu.walker.walk_unit_func_s2.power_state.pwrStateResidencyTicks::UNDEFINED   4325318352                       # Cumulative time (in ticks) in various power states (Tick)
board.processor.cores.core.mmu.walker.walk_units0.power_state.pwrStateResidencyTicks::UNDEFINED   4325318352                       # Cumulative time (in ticks) in various power states (Tick)
board.processor.cores.core.mmu.walker.walk_units1.power_state.pwrStateResidencyTicks::UNDEFINED   4325318352                       # Cumulative time (in ticks) in various power states (Tick)
board.processor.cores.core.mmu.walker.walk_units2.power_state.pwrStateResidencyTicks::UNDEFINED   4325318352                       # Cumulative time (in ticks) in various power states (Tick)
board.processor.cores.core.mmu.walker.walk_units3.power_state.pwrStateResidencyTicks::UNDEFINED   4325318352                       # Cumulative time (in ticks) in various power states (Tick)
board.processor.cores.core.mmu.walker.walk_units4.power_state.pwrStateResidencyTicks::UNDEFINED   4325318352                       # Cumulative time (in ticks) in various power states (Tick)
board.processor.cores.core.mmu.walker.walk_units5.power_state.pwrStateResidencyTicks::UNDEFINED   4325318352                       # Cumulative time (in ticks) in various power states (Tick)
board.processor.cores.core.mmu.walker.walk_units6.power_state.pwrStateResidencyTicks::UNDEFINED   4325318352                       # Cumulative time (in ticks) in various power states (Tick)
board.processor.cores.core.mmu.walker.walk_units7.power_state.pwrStateResidencyTicks::UNDEFINED   4325318352                       # Cumulative time (in ticks) in various power states (Tick)
board.processor.cores.core.power_state.pwrStateResidencyTicks::ON   4325318352                       # Cumulative time (in ticks) in various power states (Tick)
board.processor.cores.core.rename.status::Running      7054271     54.51%     54.51% # Number of cycles rename is running (Cycle)
board.processor.cores.core.rename.status::Idle      4979256     38.48%     92.99% # Number of cycles rename is idle (Cycle)
board.processor.cores.core.rename.status::Squashing       294270      2.27%     95.26% # Number of cycles rename is squashing (Cycle)
board.processor.cores.core.rename.status::Blocked       480236      3.71%     98.97% # Number of cycles rename is blocking (Cycle)
board.processor.cores.core.rename.status::Unblocking       125441      0.97%     99.94% # Number of cycles rename is unblocking (Cycle)
board.processor.cores.core.rename.status::SerializeStall         7624      0.06%    100.00% # Number of cycles rename stalled for serializing inst (Cycle)
board.processor.cores.core.rename.renamedInsts     28493663                       # Number of instructions processed by rename (Count)
board.processor.cores.core.rename.squashedInsts       892031                       # Number of squashed instructions processed by rename (Count)
board.processor.cores.core.rename.ROBFullEvents         1648                       # Number of times rename has blocked due to ROB full (Count)
board.processor.cores.core.rename.SQFullEvents        12098                       # Number of times rename has blocked due to SQ full (Count)
board.processor.cores.core.rename.fullRegistersEvents        45930                       # Number of times there has been no free registers (Count)
board.processor.cores.core.rename.renamedOperands     35999684                       # Number of destination operands rename has renamed (Count)
board.processor.cores.core.rename.lookups     48703714                       # Number of register rename lookups that rename has made (Count)
board.processor.cores.core.rename.intLookups     32372142                       # Number of integer rename lookups (Count)
board.processor.cores.core.rename.vecLookups        31688                       # Number of vector rename lookups (Count)
board.processor.cores.core.rename.vecPredLookups        15586                       # Number of vector predicate rename lookups (Count)
board.processor.cores.core.rename.committedMaps     20932711                       # Number of HB maps that are committed (Count)
board.processor.cores.core.rename.undoneMaps     15066973                       # Number of HB maps that are undone due to squashing (Count)
board.processor.cores.core.rename.serializing          103                       # count of serializing insts renamed (Count)
board.processor.cores.core.rename.tempSerializing           93                       # count of temporary serializing insts renamed (Count)
board.processor.cores.core.rename.skidInsts       447686                       # count of insts added to the skid buffer (Count)
board.processor.cores.core.rename.intReturned     10539748                       # count of registers freed and written back to integer free list (Count)
board.processor.cores.core.rob.reads         38650969                       # The number of ROB reads (Count)
board.processor.cores.core.rob.writes        53800948                       # The number of ROB writes (Count)
board.processor.cores.core.thread_0.numInsts     15745975                       # Number of Instructions committed (Count)
board.processor.cores.core.thread_0.numOps     17177661                       # Number of Ops committed (Count)
board.processor.cores.core.thread_0.numMemRefs      4749551                       # Number of Memory References (Count)
board.processor.cores.core.workload.numSyscalls           31                       # Number of system calls (Count)
board.workload.inst.arm                             0                       # number of arm instructions executed (Count)
board.workload.inst.quiesce                         0                       # number of quiesce instructions executed (Count)

---------- End Simulation Statistics   ----------
