[VMEM] WARNING: physical memory size is smaller than virtual memory size.

*** ChampSim Multicore Out-of-Order Simulator ***
Warmup Instructions: 5000000
Simulation Instructions: 25000000
Number of CPUs: 1
Page size: 4096

Off-chip DRAM Size: 16 GiB Channels: 1 Width: 64-bit Data Rate: 3205 MT/s
Warmup finished CPU 0 instructions: 5000000 cycles: 1430304 cumulative IPC: 3.496 (Simulation time: 00 hr 00 min 15 sec)
Warmup complete CPU 0 instructions: 5000000 cycles: 1430304 cumulative IPC: 3.496 (Simulation time: 00 hr 00 min 15 sec)
Heartbeat CPU 0 instructions: 10000002 cycles: 3610740 heartbeat IPC: 2.77 cumulative IPC: 2.293 (Simulation time: 00 hr 00 min 31 sec)
Heartbeat CPU 0 instructions: 20000004 cycles: 8400400 heartbeat IPC: 2.088 cumulative IPC: 2.152 (Simulation time: 00 hr 01 min 04 sec)
Simulation finished CPU 0 instructions: 25000001 cycles: 11649710 cumulative IPC: 2.146 (Simulation time: 00 hr 01 min 36 sec)
Simulation complete CPU 0 instructions: 25000001 cycles: 11649710 cumulative IPC: 2.146 (Simulation time: 00 hr 01 min 36 sec)

ChampSim completed all CPUs

=== Simulation ===
CPU 0 runs /Users/aleksandrkozlov/Projects/microarch/hw2/traces/600.perlbench_s-1273B.champsimtrace.xz

Region of Interest Statistics

CPU 0 cumulative IPC: 2.146 instructions: 25000001 cycles: 11649710
CPU 0 Branch Prediction Accuracy: 97.24% MPKI: 3.625 Average ROB Occupancy at Mispredict: 115.2
Branch type MPKI
BRANCH_DIRECT_JUMP: 0.01576
BRANCH_INDIRECT: 0.5358
BRANCH_CONDITIONAL: 3.072
BRANCH_DIRECT_CALL: 0.00072
BRANCH_INDIRECT_CALL: 0.00032
BRANCH_RETURN: 0.00072

cpu0->cpu0_STLB TOTAL        ACCESS:      12380 HIT:      12239 MISS:        141 MSHR_MERGE:          0
cpu0->cpu0_STLB LOAD         ACCESS:      12380 HIT:      12239 MISS:        141 MSHR_MERGE:          0
cpu0->cpu0_STLB RFO          ACCESS:          0 HIT:          0 MISS:          0 MSHR_MERGE:          0
cpu0->cpu0_STLB PREFETCH     ACCESS:          0 HIT:          0 MISS:          0 MSHR_MERGE:          0
cpu0->cpu0_STLB WRITE        ACCESS:          0 HIT:          0 MISS:          0 MSHR_MERGE:          0
cpu0->cpu0_STLB TRANSLATION  ACCESS:          0 HIT:          0 MISS:          0 MSHR_MERGE:          0
cpu0->cpu0_STLB PREFETCH REQUESTED:          0 ISSUED:          0 USEFUL:          0 USELESS:          0
cpu0->cpu0_STLB AVERAGE MISS LATENCY: 797.7 cycles
cpu0->cpu0_L2C TOTAL        ACCESS:       1993 HIT:        649 MISS:       1344 MSHR_MERGE:          0
cpu0->cpu0_L2C LOAD         ACCESS:       1572 HIT:        514 MISS:       1058 MSHR_MERGE:          0
cpu0->cpu0_L2C RFO          ACCESS:         42 HIT:         12 MISS:         30 MSHR_MERGE:          0
cpu0->cpu0_L2C PREFETCH     ACCESS:          0 HIT:          0 MISS:          0 MSHR_MERGE:          0
cpu0->cpu0_L2C WRITE        ACCESS:        121 HIT:        121 MISS:          0 MSHR_MERGE:          0
cpu0->cpu0_L2C TRANSLATION  ACCESS:        258 HIT:          2 MISS:        256 MSHR_MERGE:          0
cpu0->cpu0_L2C PREFETCH REQUESTED:          0 ISSUED:          0 USEFUL:          0 USELESS:          0
cpu0->cpu0_L2C AVERAGE MISS LATENCY: 188.4 cycles
cpu0->cpu0_L1I TOTAL        ACCESS:     717834 HIT:     717162 MISS:        672 MSHR_MERGE:        131
cpu0->cpu0_L1I LOAD         ACCESS:     717834 HIT:     717162 MISS:        672 MSHR_MERGE:        131
cpu0->cpu0_L1I RFO          ACCESS:          0 HIT:          0 MISS:          0 MSHR_MERGE:          0
cpu0->cpu0_L1I PREFETCH     ACCESS:          0 HIT:          0 MISS:          0 MSHR_MERGE:          0
cpu0->cpu0_L1I WRITE        ACCESS:          0 HIT:          0 MISS:          0 MSHR_MERGE:          0
cpu0->cpu0_L1I TRANSLATION  ACCESS:          0 HIT:          0 MISS:          0 MSHR_MERGE:          0
cpu0->cpu0_L1I PREFETCH REQUESTED:          0 ISSUED:          0 USEFUL:          0 USELESS:          0
cpu0->cpu0_L1I AVERAGE MISS LATENCY: 26.03 cycles
cpu0->cpu0_L1D TOTAL        ACCESS:    8435886 HIT:    8434074 MISS:       1812 MSHR_MERGE:        481
cpu0->cpu0_L1D LOAD         ACCESS:    3325980 HIT:    3324571 MISS:       1409 MSHR_MERGE:        378
cpu0->cpu0_L1D RFO          ACCESS:          0 HIT:          0 MISS:          0 MSHR_MERGE:          0
cpu0->cpu0_L1D PREFETCH     ACCESS:          0 HIT:          0 MISS:          0 MSHR_MERGE:          0
cpu0->cpu0_L1D WRITE        ACCESS:    5109615 HIT:    5109471 MISS:        144 MSHR_MERGE:        102
cpu0->cpu0_L1D TRANSLATION  ACCESS:        291 HIT:         32 MISS:        259 MSHR_MERGE:          1
cpu0->cpu0_L1D PREFETCH REQUESTED:          0 ISSUED:          0 USEFUL:          0 USELESS:          0
cpu0->cpu0_L1D AVERAGE MISS LATENCY: 191.5 cycles
cpu0->cpu0_ITLB TOTAL        ACCESS:     632367 HIT:     632207 MISS:        160 MSHR_MERGE:        109
cpu0->cpu0_ITLB LOAD         ACCESS:     632367 HIT:     632207 MISS:        160 MSHR_MERGE:        109
cpu0->cpu0_ITLB RFO          ACCESS:          0 HIT:          0 MISS:          0 MSHR_MERGE:          0
cpu0->cpu0_ITLB PREFETCH     ACCESS:          0 HIT:          0 MISS:          0 MSHR_MERGE:          0
cpu0->cpu0_ITLB WRITE        ACCESS:          0 HIT:          0 MISS:          0 MSHR_MERGE:          0
cpu0->cpu0_ITLB TRANSLATION  ACCESS:          0 HIT:          0 MISS:          0 MSHR_MERGE:          0
cpu0->cpu0_ITLB PREFETCH REQUESTED:          0 ISSUED:          0 USEFUL:          0 USELESS:          0
cpu0->cpu0_ITLB AVERAGE MISS LATENCY: 36.57 cycles
cpu0->cpu0_DTLB TOTAL        ACCESS:    7628386 HIT:    7615328 MISS:      13058 MSHR_MERGE:        729
cpu0->cpu0_DTLB LOAD         ACCESS:    7628386 HIT:    7615328 MISS:      13058 MSHR_MERGE:        729
cpu0->cpu0_DTLB RFO          ACCESS:          0 HIT:          0 MISS:          0 MSHR_MERGE:          0
cpu0->cpu0_DTLB PREFETCH     ACCESS:          0 HIT:          0 MISS:          0 MSHR_MERGE:          0
cpu0->cpu0_DTLB WRITE        ACCESS:          0 HIT:          0 MISS:          0 MSHR_MERGE:          0
cpu0->cpu0_DTLB TRANSLATION  ACCESS:          0 HIT:          0 MISS:          0 MSHR_MERGE:          0
cpu0->cpu0_DTLB PREFETCH REQUESTED:          0 ISSUED:          0 USEFUL:          0 USELESS:          0
cpu0->cpu0_DTLB AVERAGE MISS LATENCY: 14 cycles
cpu0->LLC TOTAL        ACCESS:       1344 HIT:          0 MISS:       1344 MSHR_MERGE:          0
cpu0->LLC LOAD         ACCESS:       1058 HIT:          0 MISS:       1058 MSHR_MERGE:          0
cpu0->LLC RFO          ACCESS:         30 HIT:          0 MISS:         30 MSHR_MERGE:          0
cpu0->LLC PREFETCH     ACCESS:          0 HIT:          0 MISS:          0 MSHR_MERGE:          0
cpu0->LLC WRITE        ACCESS:          0 HIT:          0 MISS:          0 MSHR_MERGE:          0
cpu0->LLC TRANSLATION  ACCESS:        256 HIT:          0 MISS:        256 MSHR_MERGE:          0
cpu0->LLC PREFETCH REQUESTED:          0 ISSUED:          0 USEFUL:          0 USELESS:          0
cpu0->LLC AVERAGE MISS LATENCY: 172.4 cycles

DRAM Statistics

Channel 0 RQ ROW_BUFFER_HIT:          8
  ROW_BUFFER_MISS:       1336
  AVG DBUS CONGESTED CYCLE: 2.69
Channel 0 WQ ROW_BUFFER_HIT:          0
  ROW_BUFFER_MISS:          0
  FULL:          0
Channel 0 REFRESHES ISSUED:        971
