[VMEM] WARNING: physical memory size is smaller than virtual memory size.

*** ChampSim Multicore Out-of-Order Simulator ***
Warmup Instructions: 5000000
Simulation Instructions: 25000000
Number of CPUs: 1
Page size: 4096

Off-chip DRAM Size: 16 GiB Channels: 1 Width: 64-bit Data Rate: 3205 MT/s
Warmup finished CPU 0 instructions: 5000003 cycles: 1752015 cumulative IPC: 2.854 (Simulation time: 00 hr 00 min 15 sec)
Warmup complete CPU 0 instructions: 5000003 cycles: 1752015 cumulative IPC: 2.854 (Simulation time: 00 hr 00 min 15 sec)
Heartbeat CPU 0 instructions: 10000002 cycles: 22646300 heartbeat IPC: 0.4416 cumulative IPC: 0.2393 (Simulation time: 00 hr 01 min 45 sec)
Heartbeat CPU 0 instructions: 20000002 cycles: 64766516 heartbeat IPC: 0.2374 cumulative IPC: 0.238 (Simulation time: 00 hr 09 min 37 sec)
Heartbeat CPU 0 instructions: 30000004 cycles: 106804072 heartbeat IPC: 0.2379 cumulative IPC: 0.238 (Simulation time: 00 hr 11 min 58 sec)
Simulation finished CPU 0 instructions: 25000001 cycles: 105052057 cumulative IPC: 0.238 (Simulation time: 00 hr 11 min 58 sec)
Simulation complete CPU 0 instructions: 25000001 cycles: 105052057 cumulative IPC: 0.238 (Simulation time: 00 hr 11 min 58 sec)

ChampSim completed all CPUs

=== Simulation ===
CPU 0 runs /Users/aleksandrkozlov/Projects/microarch/hw2/traces/602.gcc_s-1850B.champsimtrace.xz

Region of Interest Statistics

CPU 0 cumulative IPC: 0.238 instructions: 25000001 cycles: 105052057
CPU 0 Branch Prediction Accuracy: 92.26% MPKI: 19.85 Average ROB Occupancy at Mispredict: 28.65
Branch type MPKI
BRANCH_DIRECT_JUMP: 0.01196
BRANCH_INDIRECT: 0
BRANCH_CONDITIONAL: 19.84
BRANCH_DIRECT_CALL: 0
BRANCH_INDIRECT_CALL: 0
BRANCH_RETURN: 0

cpu0->cpu0_STLB TOTAL        ACCESS:       8292 HIT:        656 MISS:       7636 MSHR_MERGE:          0
cpu0->cpu0_STLB LOAD         ACCESS:       8292 HIT:        656 MISS:       7636 MSHR_MERGE:          0
cpu0->cpu0_STLB RFO          ACCESS:          0 HIT:          0 MISS:          0 MSHR_MERGE:          0
cpu0->cpu0_STLB PREFETCH     ACCESS:          0 HIT:          0 MISS:          0 MSHR_MERGE:          0
cpu0->cpu0_STLB WRITE        ACCESS:          0 HIT:          0 MISS:          0 MSHR_MERGE:          0
cpu0->cpu0_STLB TRANSLATION  ACCESS:          0 HIT:          0 MISS:          0 MSHR_MERGE:          0
cpu0->cpu0_STLB PREFETCH REQUESTED:          0 ISSUED:          0 USEFUL:          0 USELESS:          0
cpu0->cpu0_STLB AVERAGE MISS LATENCY: 672.1 cycles
cpu0->cpu0_L2C TOTAL        ACCESS:     615129 HIT:     160781 MISS:     454348 MSHR_MERGE:          0
cpu0->cpu0_L2C LOAD         ACCESS:     603936 HIT:     158916 MISS:     445020 MSHR_MERGE:          0
cpu0->cpu0_L2C RFO          ACCESS:        158 HIT:          0 MISS:        158 MSHR_MERGE:          0
cpu0->cpu0_L2C PREFETCH     ACCESS:          0 HIT:          0 MISS:          0 MSHR_MERGE:          0
cpu0->cpu0_L2C WRITE        ACCESS:       1587 HIT:       1587 MISS:          0 MSHR_MERGE:          0
cpu0->cpu0_L2C TRANSLATION  ACCESS:       9448 HIT:        278 MISS:       9170 MSHR_MERGE:          0
cpu0->cpu0_L2C PREFETCH REQUESTED:          0 ISSUED:          0 USEFUL:          0 USELESS:          0
cpu0->cpu0_L2C AVERAGE MISS LATENCY: 160.8 cycles
cpu0->cpu0_L1I TOTAL        ACCESS:        320 HIT:        320 MISS:          0 MSHR_MERGE:          0
cpu0->cpu0_L1I LOAD         ACCESS:        320 HIT:        320 MISS:          0 MSHR_MERGE:          0
cpu0->cpu0_L1I RFO          ACCESS:          0 HIT:          0 MISS:          0 MSHR_MERGE:          0
cpu0->cpu0_L1I PREFETCH     ACCESS:          0 HIT:          0 MISS:          0 MSHR_MERGE:          0
cpu0->cpu0_L1I WRITE        ACCESS:          0 HIT:          0 MISS:          0 MSHR_MERGE:          0
cpu0->cpu0_L1I TRANSLATION  ACCESS:          0 HIT:          0 MISS:          0 MSHR_MERGE:          0
cpu0->cpu0_L1I PREFETCH REQUESTED:          0 ISSUED:          0 USEFUL:          0 USELESS:          0
cpu0->cpu0_L1I AVERAGE MISS LATENCY: - cycles
cpu0->cpu0_L1D TOTAL        ACCESS:    7476586 HIT:    6418527 MISS:    1058059 MSHR_MERGE:     444517
cpu0->cpu0_L1D LOAD         ACCESS:    5303704 HIT:    4255251 MISS:    1048453 MSHR_MERGE:     444517
cpu0->cpu0_L1D RFO          ACCESS:          0 HIT:          0 MISS:          0 MSHR_MERGE:          0
cpu0->cpu0_L1D PREFETCH     ACCESS:          0 HIT:          0 MISS:          0 MSHR_MERGE:          0
cpu0->cpu0_L1D WRITE        ACCESS:    2157534 HIT:    2157376 MISS:        158 MSHR_MERGE:          0
cpu0->cpu0_L1D TRANSLATION  ACCESS:      15348 HIT:       5900 MISS:       9448 MSHR_MERGE:          0
cpu0->cpu0_L1D PREFETCH REQUESTED:          0 ISSUED:          0 USEFUL:          0 USELESS:          0
cpu0->cpu0_L1D AVERAGE MISS LATENCY: 127.8 cycles
cpu0->cpu0_ITLB TOTAL        ACCESS:        241 HIT:        241 MISS:          0 MSHR_MERGE:          0
cpu0->cpu0_ITLB LOAD         ACCESS:        241 HIT:        241 MISS:          0 MSHR_MERGE:          0
cpu0->cpu0_ITLB RFO          ACCESS:          0 HIT:          0 MISS:          0 MSHR_MERGE:          0
cpu0->cpu0_ITLB PREFETCH     ACCESS:          0 HIT:          0 MISS:          0 MSHR_MERGE:          0
cpu0->cpu0_ITLB WRITE        ACCESS:          0 HIT:          0 MISS:          0 MSHR_MERGE:          0
cpu0->cpu0_ITLB TRANSLATION  ACCESS:          0 HIT:          0 MISS:          0 MSHR_MERGE:          0
cpu0->cpu0_ITLB PREFETCH REQUESTED:          0 ISSUED:          0 USEFUL:          0 USELESS:          0
cpu0->cpu0_ITLB AVERAGE MISS LATENCY: - cycles
cpu0->cpu0_DTLB TOTAL        ACCESS:    7267151 HIT:    7251487 MISS:      15664 MSHR_MERGE:       7372
cpu0->cpu0_DTLB LOAD         ACCESS:    7267151 HIT:    7251487 MISS:      15664 MSHR_MERGE:       7372
cpu0->cpu0_DTLB RFO          ACCESS:          0 HIT:          0 MISS:          0 MSHR_MERGE:          0
cpu0->cpu0_DTLB PREFETCH     ACCESS:          0 HIT:          0 MISS:          0 MSHR_MERGE:          0
cpu0->cpu0_DTLB WRITE        ACCESS:          0 HIT:          0 MISS:          0 MSHR_MERGE:          0
cpu0->cpu0_DTLB TRANSLATION  ACCESS:          0 HIT:          0 MISS:          0 MSHR_MERGE:          0
cpu0->cpu0_DTLB PREFETCH REQUESTED:          0 ISSUED:          0 USEFUL:          0 USELESS:          0
cpu0->cpu0_DTLB AVERAGE MISS LATENCY: 624.8 cycles
cpu0->LLC TOTAL        ACCESS:     455012 HIT:       1328 MISS:     453684 MSHR_MERGE:          0
cpu0->LLC LOAD         ACCESS:     445020 HIT:        624 MISS:     444396 MSHR_MERGE:          0
cpu0->LLC RFO          ACCESS:        158 HIT:          0 MISS:        158 MSHR_MERGE:          0
cpu0->LLC PREFETCH     ACCESS:          0 HIT:          0 MISS:          0 MSHR_MERGE:          0
cpu0->LLC WRITE        ACCESS:        664 HIT:        663 MISS:          1 MSHR_MERGE:          0
cpu0->LLC TRANSLATION  ACCESS:       9170 HIT:         41 MISS:       9129 MSHR_MERGE:          0
cpu0->LLC PREFETCH REQUESTED:          0 ISSUED:          0 USEFUL:          0 USELESS:          0
cpu0->LLC AVERAGE MISS LATENCY: 145 cycles

DRAM Statistics

Channel 0 RQ ROW_BUFFER_HIT:     104498
  ROW_BUFFER_MISS:     349186
  AVG DBUS CONGESTED CYCLE: 20.76
Channel 0 WQ ROW_BUFFER_HIT:        205
  ROW_BUFFER_MISS:        459
  FULL:          0
Channel 0 REFRESHES ISSUED:       8754
