[VMEM] WARNING: physical memory size is smaller than virtual memory size.

*** ChampSim Multicore Out-of-Order Simulator ***
Warmup Instructions: 5000000
Simulation Instructions: 25000000
Number of CPUs: 1
Page size: 4096

Off-chip DRAM Size: 16 GiB Channels: 1 Width: 64-bit Data Rate: 3205 MT/s
Warmup finished CPU 0 instructions: 5000003 cycles: 1406444 cumulative IPC: 3.555 (Simulation time: 00 hr 00 min 15 sec)
Warmup complete CPU 0 instructions: 5000003 cycles: 1406444 cumulative IPC: 3.555 (Simulation time: 00 hr 00 min 15 sec)
Heartbeat CPU 0 instructions: 10000004 cycles: 7147270 heartbeat IPC: 1.399 cumulative IPC: 0.871 (Simulation time: 00 hr 00 min 48 sec)
Heartbeat CPU 0 instructions: 20000004 cycles: 18590459 heartbeat IPC: 0.8739 cumulative IPC: 0.8729 (Simulation time: 00 hr 02 min 15 sec)
Heartbeat CPU 0 instructions: 30000005 cycles: 30002066 heartbeat IPC: 0.8763 cumulative IPC: 0.8743 (Simulation time: 00 hr 19 min 35 sec)
Simulation finished CPU 0 instructions: 25000002 cycles: 28595622 cumulative IPC: 0.8743 (Simulation time: 00 hr 19 min 35 sec)
Simulation complete CPU 0 instructions: 25000002 cycles: 28595622 cumulative IPC: 0.8743 (Simulation time: 00 hr 19 min 35 sec)

ChampSim completed all CPUs

=== Simulation ===
CPU 0 runs /Users/aleksandrkozlov/Projects/microarch/hw2/traces/603.bwaves_s-2931B.champsimtrace.xz

Region of Interest Statistics

CPU 0 cumulative IPC: 0.8743 instructions: 25000002 cycles: 28595622
CPU 0 Branch Prediction Accuracy: 80.62% MPKI: 1.636 Average ROB Occupancy at Mispredict: 296.8
Branch type MPKI
BRANCH_DIRECT_JUMP: 0
BRANCH_INDIRECT: 0
BRANCH_CONDITIONAL: 1.636
BRANCH_DIRECT_CALL: 0
BRANCH_INDIRECT_CALL: 0
BRANCH_RETURN: 0

cpu0->cpu0_STLB TOTAL        ACCESS:      43527 HIT:      38195 MISS:       5332 MSHR_MERGE:          0
cpu0->cpu0_STLB LOAD         ACCESS:      43527 HIT:      38195 MISS:       5332 MSHR_MERGE:          0
cpu0->cpu0_STLB RFO          ACCESS:          0 HIT:          0 MISS:          0 MSHR_MERGE:          0
cpu0->cpu0_STLB PREFETCH     ACCESS:          0 HIT:          0 MISS:          0 MSHR_MERGE:          0
cpu0->cpu0_STLB WRITE        ACCESS:          0 HIT:          0 MISS:          0 MSHR_MERGE:          0
cpu0->cpu0_STLB TRANSLATION  ACCESS:          0 HIT:          0 MISS:          0 MSHR_MERGE:          0
cpu0->cpu0_STLB PREFETCH REQUESTED:          0 ISSUED:          0 USEFUL:          0 USELESS:          0
cpu0->cpu0_STLB AVERAGE MISS LATENCY: 704.4 cycles
cpu0->cpu0_L2C TOTAL        ACCESS:     586934 HIT:     214397 MISS:     372537 MSHR_MERGE:          0
cpu0->cpu0_L2C LOAD         ACCESS:     259145 HIT:      41615 MISS:     217530 MSHR_MERGE:          0
cpu0->cpu0_L2C RFO          ACCESS:     157602 HIT:       8761 MISS:     148841 MSHR_MERGE:          0
cpu0->cpu0_L2C PREFETCH     ACCESS:          0 HIT:          0 MISS:          0 MSHR_MERGE:          0
cpu0->cpu0_L2C WRITE        ACCESS:     159552 HIT:     159539 MISS:         13 MSHR_MERGE:          0
cpu0->cpu0_L2C TRANSLATION  ACCESS:      10635 HIT:       4482 MISS:       6153 MSHR_MERGE:          0
cpu0->cpu0_L2C PREFETCH REQUESTED:          0 ISSUED:          0 USEFUL:          0 USELESS:          0
cpu0->cpu0_L2C AVERAGE MISS LATENCY: 225.2 cycles
cpu0->cpu0_L1I TOTAL        ACCESS:    2837546 HIT:    2837538 MISS:          8 MSHR_MERGE:          1
cpu0->cpu0_L1I LOAD         ACCESS:    2837546 HIT:    2837538 MISS:          8 MSHR_MERGE:          1
cpu0->cpu0_L1I RFO          ACCESS:          0 HIT:          0 MISS:          0 MSHR_MERGE:          0
cpu0->cpu0_L1I PREFETCH     ACCESS:          0 HIT:          0 MISS:          0 MSHR_MERGE:          0
cpu0->cpu0_L1I WRITE        ACCESS:          0 HIT:          0 MISS:          0 MSHR_MERGE:          0
cpu0->cpu0_L1I TRANSLATION  ACCESS:          0 HIT:          0 MISS:          0 MSHR_MERGE:          0
cpu0->cpu0_L1I PREFETCH REQUESTED:          0 ISSUED:          0 USEFUL:          0 USELESS:          0
cpu0->cpu0_L1I AVERAGE MISS LATENCY: 250.9 cycles
cpu0->cpu0_L1D TOTAL        ACCESS:    8515033 HIT:    7710899 MISS:     804134 MSHR_MERGE:     376580
cpu0->cpu0_L1D LOAD         ACCESS:    3931143 HIT:    3668714 MISS:     262429 MSHR_MERGE:       3279
cpu0->cpu0_L1D RFO          ACCESS:          0 HIT:          0 MISS:          0 MSHR_MERGE:          0
cpu0->cpu0_L1D PREFETCH     ACCESS:          0 HIT:          0 MISS:          0 MSHR_MERGE:          0
cpu0->cpu0_L1D WRITE        ACCESS:    4573209 HIT:    4042139 MISS:     531070 MSHR_MERGE:     373301
cpu0->cpu0_L1D TRANSLATION  ACCESS:      10681 HIT:         46 MISS:      10635 MSHR_MERGE:          0
cpu0->cpu0_L1D PREFETCH REQUESTED:          0 ISSUED:          0 USEFUL:          0 USELESS:          0
cpu0->cpu0_L1D AVERAGE MISS LATENCY: 205.1 cycles
cpu0->cpu0_ITLB TOTAL        ACCESS:    2269398 HIT:    2269398 MISS:          0 MSHR_MERGE:          0
cpu0->cpu0_ITLB LOAD         ACCESS:    2269398 HIT:    2269398 MISS:          0 MSHR_MERGE:          0
cpu0->cpu0_ITLB RFO          ACCESS:          0 HIT:          0 MISS:          0 MSHR_MERGE:          0
cpu0->cpu0_ITLB PREFETCH     ACCESS:          0 HIT:          0 MISS:          0 MSHR_MERGE:          0
cpu0->cpu0_ITLB WRITE        ACCESS:          0 HIT:          0 MISS:          0 MSHR_MERGE:          0
cpu0->cpu0_ITLB TRANSLATION  ACCESS:          0 HIT:          0 MISS:          0 MSHR_MERGE:          0
cpu0->cpu0_ITLB PREFETCH REQUESTED:          0 ISSUED:          0 USEFUL:          0 USELESS:          0
cpu0->cpu0_ITLB AVERAGE MISS LATENCY: - cycles
cpu0->cpu0_DTLB TOTAL        ACCESS:    7868603 HIT:    7819863 MISS:      48740 MSHR_MERGE:       5213
cpu0->cpu0_DTLB LOAD         ACCESS:    7868603 HIT:    7819863 MISS:      48740 MSHR_MERGE:       5213
cpu0->cpu0_DTLB RFO          ACCESS:          0 HIT:          0 MISS:          0 MSHR_MERGE:          0
cpu0->cpu0_DTLB PREFETCH     ACCESS:          0 HIT:          0 MISS:          0 MSHR_MERGE:          0
cpu0->cpu0_DTLB WRITE        ACCESS:          0 HIT:          0 MISS:          0 MSHR_MERGE:          0
cpu0->cpu0_DTLB TRANSLATION  ACCESS:          0 HIT:          0 MISS:          0 MSHR_MERGE:          0
cpu0->cpu0_DTLB PREFETCH REQUESTED:          0 ISSUED:          0 USEFUL:          0 USELESS:          0
cpu0->cpu0_DTLB AVERAGE MISS LATENCY: 91.42 cycles
cpu0->LLC TOTAL        ACCESS:     521422 HIT:     174003 MISS:     347419 MSHR_MERGE:          0
cpu0->LLC LOAD         ACCESS:     217530 HIT:      25115 MISS:     192415 MSHR_MERGE:          0
cpu0->LLC RFO          ACCESS:     148841 HIT:          0 MISS:     148841 MSHR_MERGE:          0
cpu0->LLC PREFETCH     ACCESS:          0 HIT:          0 MISS:          0 MSHR_MERGE:          0
cpu0->LLC WRITE        ACCESS:     148898 HIT:     148888 MISS:         10 MSHR_MERGE:          0
cpu0->LLC TRANSLATION  ACCESS:       6153 HIT:          0 MISS:       6153 MSHR_MERGE:          0
cpu0->LLC PREFETCH REQUESTED:          0 ISSUED:          0 USEFUL:          0 USELESS:          0
cpu0->LLC AVERAGE MISS LATENCY: 224.3 cycles

DRAM Statistics

Channel 0 RQ ROW_BUFFER_HIT:          0
  ROW_BUFFER_MISS:     347405
  AVG DBUS CONGESTED CYCLE: 11.62
Channel 0 WQ ROW_BUFFER_HIT:      53419
  ROW_BUFFER_MISS:      96137
  FULL:          0
Channel 0 REFRESHES ISSUED:       2383
