[VMEM] WARNING: physical memory size is smaller than virtual memory size.

*** ChampSim Multicore Out-of-Order Simulator ***
Warmup Instructions: 5000000
Simulation Instructions: 25000000
Number of CPUs: 1
Page size: 4096

Off-chip DRAM Size: 16 GiB Channels: 1 Width: 64-bit Data Rate: 3205 MT/s
Warmup finished CPU 0 instructions: 5000001 cycles: 2093685 cumulative IPC: 2.388 (Simulation time: 00 hr 15 min 19 sec)
Warmup complete CPU 0 instructions: 5000001 cycles: 2093685 cumulative IPC: 2.388 (Simulation time: 00 hr 15 min 19 sec)
Heartbeat CPU 0 instructions: 10000001 cycles: 23365572 heartbeat IPC: 0.428 cumulative IPC: 0.2351 (Simulation time: 00 hr 17 min 26 sec)
Heartbeat CPU 0 instructions: 20000001 cycles: 64868125 heartbeat IPC: 0.2409 cumulative IPC: 0.239 (Simulation time: 00 hr 25 min 18 sec)
Heartbeat CPU 0 instructions: 30000002 cycles: 106126453 heartbeat IPC: 0.2424 cumulative IPC: 0.2403 (Simulation time: 00 hr 29 min 28 sec)
Simulation finished CPU 0 instructions: 25000001 cycles: 104032768 cumulative IPC: 0.2403 (Simulation time: 00 hr 29 min 28 sec)
Simulation complete CPU 0 instructions: 25000001 cycles: 104032768 cumulative IPC: 0.2403 (Simulation time: 00 hr 29 min 28 sec)

ChampSim completed all CPUs

=== Simulation ===
CPU 0 runs /Users/aleksandrkozlov/Projects/microarch/hw2/traces/605.mcf_s-1536B.champsimtrace.xz

Region of Interest Statistics

CPU 0 cumulative IPC: 0.2403 instructions: 25000001 cycles: 104032768
CPU 0 Branch Prediction Accuracy: 99.98% MPKI: 0.03768 Average ROB Occupancy at Mispredict: 190.2
Branch type MPKI
BRANCH_DIRECT_JUMP: 0
BRANCH_INDIRECT: 0
BRANCH_CONDITIONAL: 0.03768
BRANCH_DIRECT_CALL: 0
BRANCH_INDIRECT_CALL: 0
BRANCH_RETURN: 0

cpu0->cpu0_STLB TOTAL        ACCESS:     691054 HIT:     130052 MISS:     561002 MSHR_MERGE:          0
cpu0->cpu0_STLB LOAD         ACCESS:     691054 HIT:     130052 MISS:     561002 MSHR_MERGE:          0
cpu0->cpu0_STLB RFO          ACCESS:          0 HIT:          0 MISS:          0 MSHR_MERGE:          0
cpu0->cpu0_STLB PREFETCH     ACCESS:          0 HIT:          0 MISS:          0 MSHR_MERGE:          0
cpu0->cpu0_STLB WRITE        ACCESS:          0 HIT:          0 MISS:          0 MSHR_MERGE:          0
cpu0->cpu0_STLB TRANSLATION  ACCESS:          0 HIT:          0 MISS:          0 MSHR_MERGE:          0
cpu0->cpu0_STLB PREFETCH REQUESTED:          0 ISSUED:          0 USEFUL:          0 USELESS:          0
cpu0->cpu0_STLB AVERAGE MISS LATENCY: 84.52 cycles
cpu0->cpu0_L2C TOTAL        ACCESS:    2899995 HIT:    1217775 MISS:    1682220 MSHR_MERGE:          0
cpu0->cpu0_L2C LOAD         ACCESS:    1154550 HIT:     403379 MISS:     751171 MSHR_MERGE:          0
cpu0->cpu0_L2C RFO          ACCESS:      71350 HIT:      18993 MISS:      52357 MSHR_MERGE:          0
cpu0->cpu0_L2C PREFETCH     ACCESS:          0 HIT:          0 MISS:          0 MSHR_MERGE:          0
cpu0->cpu0_L2C WRITE        ACCESS:     556355 HIT:     556355 MISS:          0 MSHR_MERGE:          0
cpu0->cpu0_L2C TRANSLATION  ACCESS:    1117740 HIT:     239048 MISS:     878692 MSHR_MERGE:          0
cpu0->cpu0_L2C PREFETCH REQUESTED:          0 ISSUED:          0 USEFUL:          0 USELESS:          0
cpu0->cpu0_L2C AVERAGE MISS LATENCY: 108.4 cycles
cpu0->cpu0_L1I TOTAL        ACCESS:    5556887 HIT:    5556887 MISS:          0 MSHR_MERGE:          0
cpu0->cpu0_L1I LOAD         ACCESS:    5556887 HIT:    5556887 MISS:          0 MSHR_MERGE:          0
cpu0->cpu0_L1I RFO          ACCESS:          0 HIT:          0 MISS:          0 MSHR_MERGE:          0
cpu0->cpu0_L1I PREFETCH     ACCESS:          0 HIT:          0 MISS:          0 MSHR_MERGE:          0
cpu0->cpu0_L1I WRITE        ACCESS:          0 HIT:          0 MISS:          0 MSHR_MERGE:          0
cpu0->cpu0_L1I TRANSLATION  ACCESS:          0 HIT:          0 MISS:          0 MSHR_MERGE:          0
cpu0->cpu0_L1I PREFETCH REQUESTED:          0 ISSUED:          0 USEFUL:          0 USELESS:          0
cpu0->cpu0_L1I AVERAGE MISS LATENCY: - cycles
cpu0->cpu0_L1D TOTAL        ACCESS:    7303945 HIT:    4116810 MISS:    3187135 MSHR_MERGE:     843486
cpu0->cpu0_L1D LOAD         ACCESS:    4987475 HIT:    3000837 MISS:    1986638 MSHR_MERGE:     832088
cpu0->cpu0_L1D RFO          ACCESS:          0 HIT:          0 MISS:          0 MSHR_MERGE:          0
cpu0->cpu0_L1D PREFETCH     ACCESS:          0 HIT:          0 MISS:          0 MSHR_MERGE:          0
cpu0->cpu0_L1D WRITE        ACCESS:    1108563 HIT:    1037175 MISS:      71388 MSHR_MERGE:         30
cpu0->cpu0_L1D TRANSLATION  ACCESS:    1207907 HIT:      78798 MISS:    1129109 MSHR_MERGE:      11368
cpu0->cpu0_L1D PREFETCH REQUESTED:          0 ISSUED:          0 USEFUL:          0 USELESS:          0
cpu0->cpu0_L1D AVERAGE MISS LATENCY: 86.6 cycles
cpu0->cpu0_ITLB TOTAL        ACCESS:    4979576 HIT:    4979576 MISS:          0 MSHR_MERGE:          0
cpu0->cpu0_ITLB LOAD         ACCESS:    4979576 HIT:    4979576 MISS:          0 MSHR_MERGE:          0
cpu0->cpu0_ITLB RFO          ACCESS:          0 HIT:          0 MISS:          0 MSHR_MERGE:          0
cpu0->cpu0_ITLB PREFETCH     ACCESS:          0 HIT:          0 MISS:          0 MSHR_MERGE:          0
cpu0->cpu0_ITLB WRITE        ACCESS:          0 HIT:          0 MISS:          0 MSHR_MERGE:          0
cpu0->cpu0_ITLB TRANSLATION  ACCESS:          0 HIT:          0 MISS:          0 MSHR_MERGE:          0
cpu0->cpu0_ITLB PREFETCH REQUESTED:          0 ISSUED:          0 USEFUL:          0 USELESS:          0
cpu0->cpu0_ITLB AVERAGE MISS LATENCY: - cycles
cpu0->cpu0_DTLB TOTAL        ACCESS:    6050457 HIT:    4360073 MISS:    1690384 MSHR_MERGE:     999330
cpu0->cpu0_DTLB LOAD         ACCESS:    6050457 HIT:    4360073 MISS:    1690384 MSHR_MERGE:     999330
cpu0->cpu0_DTLB RFO          ACCESS:          0 HIT:          0 MISS:          0 MSHR_MERGE:          0
cpu0->cpu0_DTLB PREFETCH     ACCESS:          0 HIT:          0 MISS:          0 MSHR_MERGE:          0
cpu0->cpu0_DTLB WRITE        ACCESS:          0 HIT:          0 MISS:          0 MSHR_MERGE:          0
cpu0->cpu0_DTLB TRANSLATION  ACCESS:          0 HIT:          0 MISS:          0 MSHR_MERGE:          0
cpu0->cpu0_DTLB PREFETCH REQUESTED:          0 ISSUED:          0 USEFUL:          0 USELESS:          0
cpu0->cpu0_DTLB AVERAGE MISS LATENCY: 74.43 cycles
cpu0->LLC TOTAL        ACCESS:    2236604 HIT:    1552641 MISS:     683963 MSHR_MERGE:          0
cpu0->LLC LOAD         ACCESS:     751171 HIT:     116452 MISS:     634719 MSHR_MERGE:          0
cpu0->LLC RFO          ACCESS:      52357 HIT:      52346 MISS:         11 MSHR_MERGE:          0
cpu0->LLC PREFETCH     ACCESS:          0 HIT:          0 MISS:          0 MSHR_MERGE:          0
cpu0->LLC WRITE        ACCESS:     554384 HIT:     554384 MISS:          0 MSHR_MERGE:          0
cpu0->LLC TRANSLATION  ACCESS:     878692 HIT:     829459 MISS:      49233 MSHR_MERGE:          0
cpu0->LLC PREFETCH REQUESTED:          0 ISSUED:          0 USEFUL:          0 USELESS:          0
cpu0->LLC AVERAGE MISS LATENCY: 228.6 cycles

DRAM Statistics

Channel 0 RQ ROW_BUFFER_HIT:        152
  ROW_BUFFER_MISS:     683811
  AVG DBUS CONGESTED CYCLE: 5.83
Channel 0 WQ ROW_BUFFER_HIT:     181439
  ROW_BUFFER_MISS:     372762
  FULL:          0
Channel 0 REFRESHES ISSUED:       8669
