[VMEM] WARNING: physical memory size is smaller than virtual memory size.

*** ChampSim Multicore Out-of-Order Simulator ***
Warmup Instructions: 5000000
Simulation Instructions: 25000000
Number of CPUs: 1
Page size: 4096

Off-chip DRAM Size: 16 GiB Channels: 1 Width: 64-bit Data Rate: 3205 MT/s
Warmup finished CPU 0 instructions: 5000004 cycles: 1498026 cumulative IPC: 3.338 (Simulation time: 00 hr 00 min 17 sec)
Warmup complete CPU 0 instructions: 5000004 cycles: 1498026 cumulative IPC: 3.338 (Simulation time: 00 hr 00 min 17 sec)
Heartbeat CPU 0 instructions: 10000002 cycles: 4424126 heartbeat IPC: 2.26 cumulative IPC: 1.709 (Simulation time: 00 hr 00 min 43 sec)
Heartbeat CPU 0 instructions: 20000002 cycles: 10565504 heartbeat IPC: 1.628 cumulative IPC: 1.654 (Simulation time: 00 hr 01 min 34 sec)
Heartbeat CPU 0 instructions: 30000006 cycles: 16705825 heartbeat IPC: 1.629 cumulative IPC: 1.644 (Simulation time: 00 hr 02 min 26 sec)
Simulation finished CPU 0 instructions: 25000002 cycles: 15207799 cumulative IPC: 1.644 (Simulation time: 00 hr 02 min 26 sec)
Simulation complete CPU 0 instructions: 25000002 cycles: 15207799 cumulative IPC: 1.644 (Simulation time: 00 hr 02 min 26 sec)

ChampSim completed all CPUs

=== Simulation ===
CPU 0 runs /Users/aleksandrkozlov/Projects/microarch/hw2/traces/607.cactuBSSN_s-2421B.champsimtrace.xz

Region of Interest Statistics

CPU 0 cumulative IPC: 1.644 instructions: 25000002 cycles: 15207799
CPU 0 Branch Prediction Accuracy: 91.63% MPKI: 0.7521 Average ROB Occupancy at Mispredict: 319.4
Branch type MPKI
BRANCH_DIRECT_JUMP: 0.00132
BRANCH_INDIRECT: 8e-05
BRANCH_CONDITIONAL: 0.3843
BRANCH_DIRECT_CALL: 0.00156
BRANCH_INDIRECT_CALL: 0
BRANCH_RETURN: 0.3649

cpu0->cpu0_STLB TOTAL        ACCESS:     962389 HIT:     961362 MISS:       1027 MSHR_MERGE:          0
cpu0->cpu0_STLB LOAD         ACCESS:     962389 HIT:     961362 MISS:       1027 MSHR_MERGE:          0
cpu0->cpu0_STLB RFO          ACCESS:          0 HIT:          0 MISS:          0 MSHR_MERGE:          0
cpu0->cpu0_STLB PREFETCH     ACCESS:          0 HIT:          0 MISS:          0 MSHR_MERGE:          0
cpu0->cpu0_STLB WRITE        ACCESS:          0 HIT:          0 MISS:          0 MSHR_MERGE:          0
cpu0->cpu0_STLB TRANSLATION  ACCESS:          0 HIT:          0 MISS:          0 MSHR_MERGE:          0
cpu0->cpu0_STLB PREFETCH REQUESTED:          0 ISSUED:          0 USEFUL:          0 USELESS:          0
cpu0->cpu0_STLB AVERAGE MISS LATENCY: 806.3 cycles
cpu0->cpu0_L2C TOTAL        ACCESS:    2661208 HIT:    2523481 MISS:     137727 MSHR_MERGE:          0
cpu0->cpu0_L2C LOAD         ACCESS:    2335833 HIT:    2215658 MISS:     120175 MSHR_MERGE:          0
cpu0->cpu0_L2C RFO          ACCESS:     153302 HIT:     138264 MISS:      15038 MSHR_MERGE:          0
cpu0->cpu0_L2C PREFETCH     ACCESS:          0 HIT:          0 MISS:          0 MSHR_MERGE:          0
cpu0->cpu0_L2C WRITE        ACCESS:     169519 HIT:     169512 MISS:          7 MSHR_MERGE:          0
cpu0->cpu0_L2C TRANSLATION  ACCESS:       2554 HIT:         47 MISS:       2507 MSHR_MERGE:          0
cpu0->cpu0_L2C PREFETCH REQUESTED:          0 ISSUED:          0 USEFUL:          0 USELESS:          0
cpu0->cpu0_L2C AVERAGE MISS LATENCY: 123 cycles
cpu0->cpu0_L1I TOTAL        ACCESS:    5499335 HIT:    4215720 MISS:    1283615 MSHR_MERGE:     633508
cpu0->cpu0_L1I LOAD         ACCESS:    5499335 HIT:    4215720 MISS:    1283615 MSHR_MERGE:     633508
cpu0->cpu0_L1I RFO          ACCESS:          0 HIT:          0 MISS:          0 MSHR_MERGE:          0
cpu0->cpu0_L1I PREFETCH     ACCESS:          0 HIT:          0 MISS:          0 MSHR_MERGE:          0
cpu0->cpu0_L1I WRITE        ACCESS:          0 HIT:          0 MISS:          0 MSHR_MERGE:          0
cpu0->cpu0_L1I TRANSLATION  ACCESS:          0 HIT:          0 MISS:          0 MSHR_MERGE:          0
cpu0->cpu0_L1I PREFETCH REQUESTED:          0 ISSUED:          0 USEFUL:          0 USELESS:          0
cpu0->cpu0_L1I AVERAGE MISS LATENCY: 7.214 cycles
cpu0->cpu0_L1D TOTAL        ACCESS:    9631910 HIT:    7656556 MISS:    1975354 MSHR_MERGE:     133739
cpu0->cpu0_L1D LOAD         ACCESS:    7621232 HIT:    5819408 MISS:    1801824 MSHR_MERGE:     116073
cpu0->cpu0_L1D RFO          ACCESS:          0 HIT:          0 MISS:          0 MSHR_MERGE:          0
cpu0->cpu0_L1D PREFETCH     ACCESS:          0 HIT:          0 MISS:          0 MSHR_MERGE:          0
cpu0->cpu0_L1D WRITE        ACCESS:    2008106 HIT:    1837133 MISS:     170973 MSHR_MERGE:      17663
cpu0->cpu0_L1D TRANSLATION  ACCESS:       2572 HIT:         15 MISS:       2557 MSHR_MERGE:          3
cpu0->cpu0_L1D PREFETCH REQUESTED:          0 ISSUED:          0 USEFUL:          0 USELESS:          0
cpu0->cpu0_L1D AVERAGE MISS LATENCY: 18.25 cycles
cpu0->cpu0_ITLB TOTAL        ACCESS:    4382082 HIT:    4382067 MISS:         15 MSHR_MERGE:          5
cpu0->cpu0_ITLB LOAD         ACCESS:    4382082 HIT:    4382067 MISS:         15 MSHR_MERGE:          5
cpu0->cpu0_ITLB RFO          ACCESS:          0 HIT:          0 MISS:          0 MSHR_MERGE:          0
cpu0->cpu0_ITLB PREFETCH     ACCESS:          0 HIT:          0 MISS:          0 MSHR_MERGE:          0
cpu0->cpu0_ITLB WRITE        ACCESS:          0 HIT:          0 MISS:          0 MSHR_MERGE:          0
cpu0->cpu0_ITLB TRANSLATION  ACCESS:          0 HIT:          0 MISS:          0 MSHR_MERGE:          0
cpu0->cpu0_ITLB PREFETCH REQUESTED:          0 ISSUED:          0 USEFUL:          0 USELESS:          0
cpu0->cpu0_ITLB AVERAGE MISS LATENCY: 812.8 cycles
cpu0->cpu0_DTLB TOTAL        ACCESS:    9103644 HIT:    8034987 MISS:    1068657 MSHR_MERGE:     106278
cpu0->cpu0_DTLB LOAD         ACCESS:    9103644 HIT:    8034987 MISS:    1068657 MSHR_MERGE:     106278
cpu0->cpu0_DTLB RFO          ACCESS:          0 HIT:          0 MISS:          0 MSHR_MERGE:          0
cpu0->cpu0_DTLB PREFETCH     ACCESS:          0 HIT:          0 MISS:          0 MSHR_MERGE:          0
cpu0->cpu0_DTLB WRITE        ACCESS:          0 HIT:          0 MISS:          0 MSHR_MERGE:          0
cpu0->cpu0_DTLB TRANSLATION  ACCESS:          0 HIT:          0 MISS:          0 MSHR_MERGE:          0
cpu0->cpu0_DTLB PREFETCH REQUESTED:          0 ISSUED:          0 USEFUL:          0 USELESS:          0
cpu0->cpu0_DTLB AVERAGE MISS LATENCY: 5.898 cycles
cpu0->LLC TOTAL        ACCESS:     152974 HIT:      85517 MISS:      67457 MSHR_MERGE:          0
cpu0->LLC LOAD         ACCESS:     120175 HIT:      69080 MISS:      51095 MSHR_MERGE:          0
cpu0->LLC RFO          ACCESS:      15033 HIT:        293 MISS:      14740 MSHR_MERGE:          0
cpu0->LLC PREFETCH     ACCESS:          0 HIT:          0 MISS:          0 MSHR_MERGE:          0
cpu0->LLC WRITE        ACCESS:      15259 HIT:      15257 MISS:          2 MSHR_MERGE:          0
cpu0->LLC TRANSLATION  ACCESS:       2507 HIT:        887 MISS:       1620 MSHR_MERGE:          0
cpu0->LLC PREFETCH REQUESTED:          0 ISSUED:          0 USEFUL:          0 USELESS:          0
cpu0->LLC AVERAGE MISS LATENCY: 219.5 cycles

DRAM Statistics

Channel 0 RQ ROW_BUFFER_HIT:         64
  ROW_BUFFER_MISS:      67391
  AVG DBUS CONGESTED CYCLE: 10.58
Channel 0 WQ ROW_BUFFER_HIT:        875
  ROW_BUFFER_MISS:      10667
  FULL:          0
Channel 0 REFRESHES ISSUED:       1268
