[VMEM] WARNING: physical memory size is smaller than virtual memory size.

*** ChampSim Multicore Out-of-Order Simulator ***
Warmup Instructions: 5000000
Simulation Instructions: 25000000
Number of CPUs: 1
Page size: 4096

Off-chip DRAM Size: 16 GiB Channels: 1 Width: 64-bit Data Rate: 3205 MT/s
Warmup finished CPU 0 instructions: 5000001 cycles: 1775748 cumulative IPC: 2.816 (Simulation time: 00 hr 00 min 16 sec)
Warmup complete CPU 0 instructions: 5000001 cycles: 1775748 cumulative IPC: 2.816 (Simulation time: 00 hr 00 min 16 sec)
Heartbeat CPU 0 instructions: 10000001 cycles: 12678300 heartbeat IPC: 0.7887 cumulative IPC: 0.4586 (Simulation time: 00 hr 01 min 30 sec)
Heartbeat CPU 0 instructions: 20000001 cycles: 34016893 heartbeat IPC: 0.4686 cumulative IPC: 0.4652 (Simulation time: 00 hr 03 min 56 sec)
Heartbeat CPU 0 instructions: 30000003 cycles: 54998463 heartbeat IPC: 0.4766 cumulative IPC: 0.4697 (Simulation time: 00 hr 06 min 18 sec)
Simulation finished CPU 0 instructions: 25000002 cycles: 53222715 cumulative IPC: 0.4697 (Simulation time: 00 hr 06 min 18 sec)
Simulation complete CPU 0 instructions: 25000002 cycles: 53222715 cumulative IPC: 0.4697 (Simulation time: 00 hr 06 min 18 sec)

ChampSim completed all CPUs

=== Simulation ===
CPU 0 runs /Users/aleksandrkozlov/Projects/microarch/hw2/traces/619.lbm_s-2676B.champsimtrace.xz

Region of Interest Statistics

CPU 0 cumulative IPC: 0.4697 instructions: 25000002 cycles: 53222715
CPU 0 Branch Prediction Accuracy: 95.63% MPKI: 0.7376 Average ROB Occupancy at Mispredict: 213.5
Branch type MPKI
BRANCH_DIRECT_JUMP: 0
BRANCH_INDIRECT: 0
BRANCH_CONDITIONAL: 0.7376
BRANCH_DIRECT_CALL: 0
BRANCH_INDIRECT_CALL: 0
BRANCH_RETURN: 0

cpu0->cpu0_STLB TOTAL        ACCESS:      31491 HIT:      14402 MISS:      17089 MSHR_MERGE:          0
cpu0->cpu0_STLB LOAD         ACCESS:      31491 HIT:      14402 MISS:      17089 MSHR_MERGE:          0
cpu0->cpu0_STLB RFO          ACCESS:          0 HIT:          0 MISS:          0 MSHR_MERGE:          0
cpu0->cpu0_STLB PREFETCH     ACCESS:          0 HIT:          0 MISS:          0 MSHR_MERGE:          0
cpu0->cpu0_STLB WRITE        ACCESS:          0 HIT:          0 MISS:          0 MSHR_MERGE:          0
cpu0->cpu0_STLB TRANSLATION  ACCESS:          0 HIT:          0 MISS:          0 MSHR_MERGE:          0
cpu0->cpu0_STLB PREFETCH REQUESTED:          0 ISSUED:          0 USEFUL:          0 USELESS:          0
cpu0->cpu0_STLB AVERAGE MISS LATENCY: 945.3 cycles
cpu0->cpu0_L2C TOTAL        ACCESS:    3375765 HIT:    2236364 MISS:    1139401 MSHR_MERGE:          0
cpu0->cpu0_L2C LOAD         ACCESS:     273388 HIT:         16 MISS:     273372 MSHR_MERGE:          0
cpu0->cpu0_L2C RFO          ACCESS:    1541549 HIT:     694764 MISS:     846785 MSHR_MERGE:          0
cpu0->cpu0_L2C PREFETCH     ACCESS:          0 HIT:          0 MISS:          0 MSHR_MERGE:          0
cpu0->cpu0_L2C WRITE        ACCESS:    1541584 HIT:    1541584 MISS:          0 MSHR_MERGE:          0
cpu0->cpu0_L2C TRANSLATION  ACCESS:      19244 HIT:          0 MISS:      19244 MSHR_MERGE:          0
cpu0->cpu0_L2C PREFETCH REQUESTED:          0 ISSUED:          0 USEFUL:          0 USELESS:          0
cpu0->cpu0_L2C AVERAGE MISS LATENCY: 482.7 cycles
cpu0->cpu0_L1I TOTAL        ACCESS:    3958392 HIT:    3958392 MISS:          0 MSHR_MERGE:          0
cpu0->cpu0_L1I LOAD         ACCESS:    3958392 HIT:    3958392 MISS:          0 MSHR_MERGE:          0
cpu0->cpu0_L1I RFO          ACCESS:          0 HIT:          0 MISS:          0 MSHR_MERGE:          0
cpu0->cpu0_L1I PREFETCH     ACCESS:          0 HIT:          0 MISS:          0 MSHR_MERGE:          0
cpu0->cpu0_L1I WRITE        ACCESS:          0 HIT:          0 MISS:          0 MSHR_MERGE:          0
cpu0->cpu0_L1I TRANSLATION  ACCESS:          0 HIT:          0 MISS:          0 MSHR_MERGE:          0
cpu0->cpu0_L1I PREFETCH REQUESTED:          0 ISSUED:          0 USEFUL:          0 USELESS:          0
cpu0->cpu0_L1I AVERAGE MISS LATENCY: - cycles
cpu0->cpu0_L1D TOTAL        ACCESS:    6053771 HIT:    3795184 MISS:    2258587 MSHR_MERGE:     424371
cpu0->cpu0_L1D LOAD         ACCESS:    1563841 HIT:     938697 MISS:     625144 MSHR_MERGE:     351756
cpu0->cpu0_L1D RFO          ACCESS:          0 HIT:          0 MISS:          0 MSHR_MERGE:          0
cpu0->cpu0_L1D PREFETCH     ACCESS:          0 HIT:          0 MISS:          0 MSHR_MERGE:          0
cpu0->cpu0_L1D WRITE        ACCESS:    4455734 HIT:    2841535 MISS:    1614199 MSHR_MERGE:      72615
cpu0->cpu0_L1D TRANSLATION  ACCESS:      34196 HIT:      14952 MISS:      19244 MSHR_MERGE:          0
cpu0->cpu0_L1D PREFETCH REQUESTED:          0 ISSUED:          0 USEFUL:          0 USELESS:          0
cpu0->cpu0_L1D AVERAGE MISS LATENCY: 309.4 cycles
cpu0->cpu0_ITLB TOTAL        ACCESS:    2939441 HIT:    2939441 MISS:          0 MSHR_MERGE:          0
cpu0->cpu0_ITLB LOAD         ACCESS:    2939441 HIT:    2939441 MISS:          0 MSHR_MERGE:          0
cpu0->cpu0_ITLB RFO          ACCESS:          0 HIT:          0 MISS:          0 MSHR_MERGE:          0
cpu0->cpu0_ITLB PREFETCH     ACCESS:          0 HIT:          0 MISS:          0 MSHR_MERGE:          0
cpu0->cpu0_ITLB WRITE        ACCESS:          0 HIT:          0 MISS:          0 MSHR_MERGE:          0
cpu0->cpu0_ITLB TRANSLATION  ACCESS:          0 HIT:          0 MISS:          0 MSHR_MERGE:          0
cpu0->cpu0_ITLB PREFETCH REQUESTED:          0 ISSUED:          0 USEFUL:          0 USELESS:          0
cpu0->cpu0_ITLB AVERAGE MISS LATENCY: - cycles
cpu0->cpu0_DTLB TOTAL        ACCESS:    5670017 HIT:    5574462 MISS:      95555 MSHR_MERGE:      64064
cpu0->cpu0_DTLB LOAD         ACCESS:    5670017 HIT:    5574462 MISS:      95555 MSHR_MERGE:      64064
cpu0->cpu0_DTLB RFO          ACCESS:          0 HIT:          0 MISS:          0 MSHR_MERGE:          0
cpu0->cpu0_DTLB PREFETCH     ACCESS:          0 HIT:          0 MISS:          0 MSHR_MERGE:          0
cpu0->cpu0_DTLB WRITE        ACCESS:          0 HIT:          0 MISS:          0 MSHR_MERGE:          0
cpu0->cpu0_DTLB TRANSLATION  ACCESS:          0 HIT:          0 MISS:          0 MSHR_MERGE:          0
cpu0->cpu0_DTLB PREFETCH REQUESTED:          0 ISSUED:          0 USEFUL:          0 USELESS:          0
cpu0->cpu0_DTLB AVERAGE MISS LATENCY: 518.6 cycles
cpu0->LLC TOTAL        ACCESS:    1986180 HIT:     873557 MISS:    1112623 MSHR_MERGE:          0
cpu0->LLC LOAD         ACCESS:     273372 HIT:          8 MISS:     273364 MSHR_MERGE:          0
cpu0->LLC RFO          ACCESS:     846785 HIT:      26770 MISS:     820015 MSHR_MERGE:          0
cpu0->LLC PREFETCH     ACCESS:          0 HIT:          0 MISS:          0 MSHR_MERGE:          0
cpu0->LLC WRITE        ACCESS:     846779 HIT:     846779 MISS:          0 MSHR_MERGE:          0
cpu0->LLC TRANSLATION  ACCESS:      19244 HIT:          0 MISS:      19244 MSHR_MERGE:          0
cpu0->LLC PREFETCH REQUESTED:          0 ISSUED:          0 USEFUL:          0 USELESS:          0
cpu0->LLC AVERAGE MISS LATENCY: 477.9 cycles

DRAM Statistics

Channel 0 RQ ROW_BUFFER_HIT:      57854
  ROW_BUFFER_MISS:    1054768
  AVG DBUS CONGESTED CYCLE: 7.211
Channel 0 WQ ROW_BUFFER_HIT:     131554
  ROW_BUFFER_MISS:     688515
  FULL:          0
Channel 0 REFRESHES ISSUED:       4436
