[VMEM] WARNING: physical memory size is smaller than virtual memory size.

*** ChampSim Multicore Out-of-Order Simulator ***
Warmup Instructions: 5000000
Simulation Instructions: 25000000
Number of CPUs: 1
Page size: 4096

Off-chip DRAM Size: 16 GiB Channels: 1 Width: 64-bit Data Rate: 3205 MT/s
Warmup finished CPU 0 instructions: 5000004 cycles: 1255151 cumulative IPC: 3.984 (Simulation time: 00 hr 00 min 11 sec)
Warmup complete CPU 0 instructions: 5000004 cycles: 1255151 cumulative IPC: 3.984 (Simulation time: 00 hr 00 min 11 sec)
Heartbeat CPU 0 instructions: 10000000 cycles: 5561004 heartbeat IPC: 1.798 cumulative IPC: 1.161 (Simulation time: 00 hr 00 min 32 sec)
Heartbeat CPU 0 instructions: 20000000 cycles: 14070213 heartbeat IPC: 1.175 cumulative IPC: 1.17 (Simulation time: 00 hr 01 min 13 sec)
Heartbeat CPU 0 instructions: 30000000 cycles: 22606141 heartbeat IPC: 1.172 cumulative IPC: 1.171 (Simulation time: 00 hr 01 min 54 sec)
Simulation finished CPU 0 instructions: 25000000 cycles: 21350998 cumulative IPC: 1.171 (Simulation time: 00 hr 01 min 54 sec)
Simulation complete CPU 0 instructions: 25000000 cycles: 21350998 cumulative IPC: 1.171 (Simulation time: 00 hr 01 min 54 sec)

ChampSim completed all CPUs

=== Simulation ===
CPU 0 runs /Users/aleksandrkozlov/Projects/microarch/hw2/traces/621.wrf_s-575B.champsimtrace.xz

Region of Interest Statistics

CPU 0 cumulative IPC: 1.171 instructions: 25000000 cycles: 21350998
CPU 0 Branch Prediction Accuracy: 93.12% MPKI: 9.201 Average ROB Occupancy at Mispredict: 65.74
Branch type MPKI
BRANCH_DIRECT_JUMP: 0.00064
BRANCH_INDIRECT: 0
BRANCH_CONDITIONAL: 9.177
BRANCH_DIRECT_CALL: 0.00312
BRANCH_INDIRECT_CALL: 0
BRANCH_RETURN: 0.02012

cpu0->cpu0_STLB TOTAL        ACCESS:       1024 HIT:        940 MISS:         84 MSHR_MERGE:          0
cpu0->cpu0_STLB LOAD         ACCESS:       1024 HIT:        940 MISS:         84 MSHR_MERGE:          0
cpu0->cpu0_STLB RFO          ACCESS:          0 HIT:          0 MISS:          0 MSHR_MERGE:          0
cpu0->cpu0_STLB PREFETCH     ACCESS:          0 HIT:          0 MISS:          0 MSHR_MERGE:          0
cpu0->cpu0_STLB WRITE        ACCESS:          0 HIT:          0 MISS:          0 MSHR_MERGE:          0
cpu0->cpu0_STLB TRANSLATION  ACCESS:          0 HIT:          0 MISS:          0 MSHR_MERGE:          0
cpu0->cpu0_STLB PREFETCH REQUESTED:          0 ISSUED:          0 USEFUL:          0 USELESS:          0
cpu0->cpu0_STLB AVERAGE MISS LATENCY: 884.3 cycles
cpu0->cpu0_L2C TOTAL        ACCESS:       1788 HIT:        418 MISS:       1370 MSHR_MERGE:          0
cpu0->cpu0_L2C LOAD         ACCESS:        830 HIT:        163 MISS:        667 MSHR_MERGE:          0
cpu0->cpu0_L2C RFO          ACCESS:        554 HIT:         12 MISS:        542 MSHR_MERGE:          0
cpu0->cpu0_L2C PREFETCH     ACCESS:          0 HIT:          0 MISS:          0 MSHR_MERGE:          0
cpu0->cpu0_L2C WRITE        ACCESS:        240 HIT:        240 MISS:          0 MSHR_MERGE:          0
cpu0->cpu0_L2C TRANSLATION  ACCESS:        164 HIT:          3 MISS:        161 MSHR_MERGE:          0
cpu0->cpu0_L2C PREFETCH REQUESTED:          0 ISSUED:          0 USEFUL:          0 USELESS:          0
cpu0->cpu0_L2C AVERAGE MISS LATENCY: 198 cycles
cpu0->cpu0_L1I TOTAL        ACCESS:     579855 HIT:     579285 MISS:        570 MSHR_MERGE:        164
cpu0->cpu0_L1I LOAD         ACCESS:     579855 HIT:     579285 MISS:        570 MSHR_MERGE:        164
cpu0->cpu0_L1I RFO          ACCESS:          0 HIT:          0 MISS:          0 MSHR_MERGE:          0
cpu0->cpu0_L1I PREFETCH     ACCESS:          0 HIT:          0 MISS:          0 MSHR_MERGE:          0
cpu0->cpu0_L1I WRITE        ACCESS:          0 HIT:          0 MISS:          0 MSHR_MERGE:          0
cpu0->cpu0_L1I TRANSLATION  ACCESS:          0 HIT:          0 MISS:          0 MSHR_MERGE:          0
cpu0->cpu0_L1I PREFETCH REQUESTED:          0 ISSUED:          0 USEFUL:          0 USELESS:          0
cpu0->cpu0_L1I AVERAGE MISS LATENCY: 135.6 cycles
cpu0->cpu0_L1D TOTAL        ACCESS:    4653515 HIT:    4651072 MISS:       2443 MSHR_MERGE:       1301
cpu0->cpu0_L1D LOAD         ACCESS:    3679968 HIT:    3679057 MISS:        911 MSHR_MERGE:        487
cpu0->cpu0_L1D RFO          ACCESS:          0 HIT:          0 MISS:          0 MSHR_MERGE:          0
cpu0->cpu0_L1D PREFETCH     ACCESS:          0 HIT:          0 MISS:          0 MSHR_MERGE:          0
cpu0->cpu0_L1D WRITE        ACCESS:     973365 HIT:     972002 MISS:       1363 MSHR_MERGE:        809
cpu0->cpu0_L1D TRANSLATION  ACCESS:        182 HIT:         13 MISS:        169 MSHR_MERGE:          5
cpu0->cpu0_L1D PREFETCH REQUESTED:          0 ISSUED:          0 USEFUL:          0 USELESS:          0
cpu0->cpu0_L1D AVERAGE MISS LATENCY: 201.1 cycles
cpu0->cpu0_ITLB TOTAL        ACCESS:     478599 HIT:     478566 MISS:         33 MSHR_MERGE:         22
cpu0->cpu0_ITLB LOAD         ACCESS:     478599 HIT:     478566 MISS:         33 MSHR_MERGE:         22
cpu0->cpu0_ITLB RFO          ACCESS:          0 HIT:          0 MISS:          0 MSHR_MERGE:          0
cpu0->cpu0_ITLB PREFETCH     ACCESS:          0 HIT:          0 MISS:          0 MSHR_MERGE:          0
cpu0->cpu0_ITLB WRITE        ACCESS:          0 HIT:          0 MISS:          0 MSHR_MERGE:          0
cpu0->cpu0_ITLB TRANSLATION  ACCESS:          0 HIT:          0 MISS:          0 MSHR_MERGE:          0
cpu0->cpu0_ITLB PREFETCH REQUESTED:          0 ISSUED:          0 USEFUL:          0 USELESS:          0
cpu0->cpu0_ITLB AVERAGE MISS LATENCY: 745 cycles
cpu0->cpu0_DTLB TOTAL        ACCESS:    4573700 HIT:    4572205 MISS:       1495 MSHR_MERGE:        482
cpu0->cpu0_DTLB LOAD         ACCESS:    4573700 HIT:    4572205 MISS:       1495 MSHR_MERGE:        482
cpu0->cpu0_DTLB RFO          ACCESS:          0 HIT:          0 MISS:          0 MSHR_MERGE:          0
cpu0->cpu0_DTLB PREFETCH     ACCESS:          0 HIT:          0 MISS:          0 MSHR_MERGE:          0
cpu0->cpu0_DTLB WRITE        ACCESS:          0 HIT:          0 MISS:          0 MSHR_MERGE:          0
cpu0->cpu0_DTLB TRANSLATION  ACCESS:          0 HIT:          0 MISS:          0 MSHR_MERGE:          0
cpu0->cpu0_DTLB PREFETCH REQUESTED:          0 ISSUED:          0 USEFUL:          0 USELESS:          0
cpu0->cpu0_DTLB AVERAGE MISS LATENCY: 70.37 cycles
cpu0->LLC TOTAL        ACCESS:       1370 HIT:          0 MISS:       1370 MSHR_MERGE:          0
cpu0->LLC LOAD         ACCESS:        667 HIT:          0 MISS:        667 MSHR_MERGE:          0
cpu0->LLC RFO          ACCESS:        542 HIT:          0 MISS:        542 MSHR_MERGE:          0
cpu0->LLC PREFETCH     ACCESS:          0 HIT:          0 MISS:          0 MSHR_MERGE:          0
cpu0->LLC WRITE        ACCESS:          0 HIT:          0 MISS:          0 MSHR_MERGE:          0
cpu0->LLC TRANSLATION  ACCESS:        161 HIT:          0 MISS:        161 MSHR_MERGE:          0
cpu0->LLC PREFETCH REQUESTED:          0 ISSUED:          0 USEFUL:          0 USELESS:          0
cpu0->LLC AVERAGE MISS LATENCY: 182 cycles

DRAM Statistics

Channel 0 RQ ROW_BUFFER_HIT:          0
  ROW_BUFFER_MISS:       1370
  AVG DBUS CONGESTED CYCLE: 2.868
Channel 0 WQ ROW_BUFFER_HIT:          0
  ROW_BUFFER_MISS:          0
  FULL:          0
Channel 0 REFRESHES ISSUED:       1779
