[VMEM] WARNING: physical memory size is smaller than virtual memory size.

*** ChampSim Multicore Out-of-Order Simulator ***
Warmup Instructions: 5000000
Simulation Instructions: 25000000
Number of CPUs: 1
Page size: 4096

Off-chip DRAM Size: 16 GiB Channels: 1 Width: 64-bit Data Rate: 3205 MT/s
Warmup finished CPU 0 instructions: 5000000 cycles: 1482076 cumulative IPC: 3.374 (Simulation time: 00 hr 00 min 13 sec)
Warmup complete CPU 0 instructions: 5000000 cycles: 1482076 cumulative IPC: 3.374 (Simulation time: 00 hr 00 min 13 sec)
Heartbeat CPU 0 instructions: 10000000 cycles: 7133111 heartbeat IPC: 1.402 cumulative IPC: 0.8848 (Simulation time: 00 hr 00 min 41 sec)
Heartbeat CPU 0 instructions: 20000000 cycles: 15087873 heartbeat IPC: 1.257 cumulative IPC: 1.102 (Simulation time: 00 hr 01 min 25 sec)
Heartbeat CPU 0 instructions: 30000002 cycles: 26279957 heartbeat IPC: 0.8935 cumulative IPC: 1.008 (Simulation time: 00 hr 02 min 24 sec)
Simulation finished CPU 0 instructions: 25000002 cycles: 24797881 cumulative IPC: 1.008 (Simulation time: 00 hr 02 min 24 sec)
Simulation complete CPU 0 instructions: 25000002 cycles: 24797881 cumulative IPC: 1.008 (Simulation time: 00 hr 02 min 24 sec)

ChampSim completed all CPUs

=== Simulation ===
CPU 0 runs /Users/aleksandrkozlov/Projects/microarch/hw2/traces/627.cam4_s-490B.champsimtrace.xz

Region of Interest Statistics

CPU 0 cumulative IPC: 1.008 instructions: 25000002 cycles: 24797881
CPU 0 Branch Prediction Accuracy: 88.99% MPKI: 10.5 Average ROB Occupancy at Mispredict: 30.09
Branch type MPKI
BRANCH_DIRECT_JUMP: 0.00488
BRANCH_INDIRECT: 0
BRANCH_CONDITIONAL: 10.5
BRANCH_DIRECT_CALL: 0.00032
BRANCH_INDIRECT_CALL: 0
BRANCH_RETURN: 0.00044

cpu0->cpu0_STLB TOTAL        ACCESS:       8024 HIT:       7373 MISS:        651 MSHR_MERGE:          0
cpu0->cpu0_STLB LOAD         ACCESS:       8024 HIT:       7373 MISS:        651 MSHR_MERGE:          0
cpu0->cpu0_STLB RFO          ACCESS:          0 HIT:          0 MISS:          0 MSHR_MERGE:          0
cpu0->cpu0_STLB PREFETCH     ACCESS:          0 HIT:          0 MISS:          0 MSHR_MERGE:          0
cpu0->cpu0_STLB WRITE        ACCESS:          0 HIT:          0 MISS:          0 MSHR_MERGE:          0
cpu0->cpu0_STLB TRANSLATION  ACCESS:          0 HIT:          0 MISS:          0 MSHR_MERGE:          0
cpu0->cpu0_STLB PREFETCH REQUESTED:          0 ISSUED:          0 USEFUL:          0 USELESS:          0
cpu0->cpu0_STLB AVERAGE MISS LATENCY: 715.8 cycles
cpu0->cpu0_L2C TOTAL        ACCESS:     667944 HIT:     356700 MISS:     311244 MSHR_MERGE:          0
cpu0->cpu0_L2C LOAD         ACCESS:     330483 HIT:     151468 MISS:     179015 MSHR_MERGE:          0
cpu0->cpu0_L2C RFO          ACCESS:     136463 HIT:       5476 MISS:     130987 MSHR_MERGE:          0
cpu0->cpu0_L2C PREFETCH     ACCESS:          0 HIT:          0 MISS:          0 MSHR_MERGE:          0
cpu0->cpu0_L2C WRITE        ACCESS:     200177 HIT:     199752 MISS:        425 MSHR_MERGE:          0
cpu0->cpu0_L2C TRANSLATION  ACCESS:        821 HIT:          4 MISS:        817 MSHR_MERGE:          0
cpu0->cpu0_L2C PREFETCH REQUESTED:          0 ISSUED:          0 USEFUL:          0 USELESS:          0
cpu0->cpu0_L2C AVERAGE MISS LATENCY: 126.6 cycles
cpu0->cpu0_L1I TOTAL        ACCESS:    1725867 HIT:    1724819 MISS:       1048 MSHR_MERGE:        511
cpu0->cpu0_L1I LOAD         ACCESS:    1725867 HIT:    1724819 MISS:       1048 MSHR_MERGE:        511
cpu0->cpu0_L1I RFO          ACCESS:          0 HIT:          0 MISS:          0 MSHR_MERGE:          0
cpu0->cpu0_L1I PREFETCH     ACCESS:          0 HIT:          0 MISS:          0 MSHR_MERGE:          0
cpu0->cpu0_L1I WRITE        ACCESS:          0 HIT:          0 MISS:          0 MSHR_MERGE:          0
cpu0->cpu0_L1I TRANSLATION  ACCESS:          0 HIT:          0 MISS:          0 MSHR_MERGE:          0
cpu0->cpu0_L1I PREFETCH REQUESTED:          0 ISSUED:          0 USEFUL:          0 USELESS:          0
cpu0->cpu0_L1I AVERAGE MISS LATENCY: 247.6 cycles
cpu0->cpu0_L1D TOTAL        ACCESS:    4979016 HIT:    3608444 MISS:    1370572 MSHR_MERGE:     903341
cpu0->cpu0_L1D LOAD         ACCESS:    3320945 HIT:    2618842 MISS:     702103 MSHR_MERGE:     372156
cpu0->cpu0_L1D RFO          ACCESS:          0 HIT:          0 MISS:          0 MSHR_MERGE:          0
cpu0->cpu0_L1D PREFETCH     ACCESS:          0 HIT:          0 MISS:          0 MSHR_MERGE:          0
cpu0->cpu0_L1D WRITE        ACCESS:    1656757 HIT:     989111 MISS:     667646 MSHR_MERGE:     531183
cpu0->cpu0_L1D TRANSLATION  ACCESS:       1314 HIT:        491 MISS:        823 MSHR_MERGE:          2
cpu0->cpu0_L1D PREFETCH REQUESTED:          0 ISSUED:          0 USEFUL:          0 USELESS:          0
cpu0->cpu0_L1D AVERAGE MISS LATENCY: 92.76 cycles
cpu0->cpu0_ITLB TOTAL        ACCESS:    1551518 HIT:    1551496 MISS:         22 MSHR_MERGE:         16
cpu0->cpu0_ITLB LOAD         ACCESS:    1551518 HIT:    1551496 MISS:         22 MSHR_MERGE:         16
cpu0->cpu0_ITLB RFO          ACCESS:          0 HIT:          0 MISS:          0 MSHR_MERGE:          0
cpu0->cpu0_ITLB PREFETCH     ACCESS:          0 HIT:          0 MISS:          0 MSHR_MERGE:          0
cpu0->cpu0_ITLB WRITE        ACCESS:          0 HIT:          0 MISS:          0 MSHR_MERGE:          0
cpu0->cpu0_ITLB TRANSLATION  ACCESS:          0 HIT:          0 MISS:          0 MSHR_MERGE:          0
cpu0->cpu0_ITLB PREFETCH REQUESTED:          0 ISSUED:          0 USEFUL:          0 USELESS:          0
cpu0->cpu0_ITLB AVERAGE MISS LATENCY: 931.5 cycles
cpu0->cpu0_DTLB TOTAL        ACCESS:    4828060 HIT:    4812562 MISS:      15498 MSHR_MERGE:       7480
cpu0->cpu0_DTLB LOAD         ACCESS:    4828060 HIT:    4812562 MISS:      15498 MSHR_MERGE:       7480
cpu0->cpu0_DTLB RFO          ACCESS:          0 HIT:          0 MISS:          0 MSHR_MERGE:          0
cpu0->cpu0_DTLB PREFETCH     ACCESS:          0 HIT:          0 MISS:          0 MSHR_MERGE:          0
cpu0->cpu0_DTLB WRITE        ACCESS:          0 HIT:          0 MISS:          0 MSHR_MERGE:          0
cpu0->cpu0_DTLB TRANSLATION  ACCESS:          0 HIT:          0 MISS:          0 MSHR_MERGE:          0
cpu0->cpu0_DTLB PREFETCH REQUESTED:          0 ISSUED:          0 USEFUL:          0 USELESS:          0
cpu0->cpu0_DTLB AVERAGE MISS LATENCY: 62.51 cycles
cpu0->LLC TOTAL        ACCESS:     477313 HIT:     353480 MISS:     123833 MSHR_MERGE:          0
cpu0->LLC LOAD         ACCESS:     179015 HIT:     128022 MISS:      50993 MSHR_MERGE:          0
cpu0->LLC RFO          ACCESS:     130987 HIT:      58968 MISS:      72019 MSHR_MERGE:          0
cpu0->LLC PREFETCH     ACCESS:          0 HIT:          0 MISS:          0 MSHR_MERGE:          0
cpu0->LLC WRITE        ACCESS:     166494 HIT:     166487 MISS:          7 MSHR_MERGE:          0
cpu0->LLC TRANSLATION  ACCESS:        817 HIT:          3 MISS:        814 MSHR_MERGE:          0
cpu0->LLC PREFETCH REQUESTED:          0 ISSUED:          0 USEFUL:          0 USELESS:          0
cpu0->LLC AVERAGE MISS LATENCY: 279.4 cycles

DRAM Statistics

Channel 0 RQ ROW_BUFFER_HIT:       6650
  ROW_BUFFER_MISS:     117014
  AVG DBUS CONGESTED CYCLE: 9.696
Channel 0 WQ ROW_BUFFER_HIT:      21598
  ROW_BUFFER_MISS:      70421
  FULL:          0
Channel 0 REFRESHES ISSUED:       2066
