[VMEM] WARNING: physical memory size is smaller than virtual memory size.

*** ChampSim Multicore Out-of-Order Simulator ***
Warmup Instructions: 5000000
Simulation Instructions: 25000000
Number of CPUs: 1
Page size: 4096

Off-chip DRAM Size: 16 GiB Channels: 1 Width: 64-bit Data Rate: 3205 MT/s
Warmup finished CPU 0 instructions: 5000001 cycles: 1465520 cumulative IPC: 3.412 (Simulation time: 00 hr 00 min 13 sec)
Warmup complete CPU 0 instructions: 5000001 cycles: 1465520 cumulative IPC: 3.412 (Simulation time: 00 hr 00 min 13 sec)
Heartbeat CPU 0 instructions: 10000002 cycles: 5571267 heartbeat IPC: 1.795 cumulative IPC: 1.218 (Simulation time: 00 hr 00 min 38 sec)
Heartbeat CPU 0 instructions: 20000003 cycles: 13833254 heartbeat IPC: 1.21 cumulative IPC: 1.213 (Simulation time: 00 hr 01 min 24 sec)
Simulation finished CPU 0 instructions: 25000001 cycles: 20610816 cumulative IPC: 1.213 (Simulation time: 00 hr 02 min 10 sec)
Simulation complete CPU 0 instructions: 25000001 cycles: 20610816 cumulative IPC: 1.213 (Simulation time: 00 hr 02 min 10 sec)

ChampSim completed all CPUs

=== Simulation ===
CPU 0 runs /Users/aleksandrkozlov/Projects/microarch/hw2/traces/628.pop2_s-17B.champsimtrace.xz

Region of Interest Statistics

CPU 0 cumulative IPC: 1.213 instructions: 25000001 cycles: 20610816
CPU 0 Branch Prediction Accuracy: 96.44% MPKI: 4.069 Average ROB Occupancy at Mispredict: 88.05
Branch type MPKI
BRANCH_DIRECT_JUMP: 0.05124
BRANCH_INDIRECT: 0.0016
BRANCH_CONDITIONAL: 4.016
BRANCH_DIRECT_CALL: 0
BRANCH_INDIRECT_CALL: 0
BRANCH_RETURN: 0

cpu0->cpu0_STLB TOTAL        ACCESS:      21993 HIT:      20764 MISS:       1229 MSHR_MERGE:          0
cpu0->cpu0_STLB LOAD         ACCESS:      21993 HIT:      20764 MISS:       1229 MSHR_MERGE:          0
cpu0->cpu0_STLB RFO          ACCESS:          0 HIT:          0 MISS:          0 MSHR_MERGE:          0
cpu0->cpu0_STLB PREFETCH     ACCESS:          0 HIT:          0 MISS:          0 MSHR_MERGE:          0
cpu0->cpu0_STLB WRITE        ACCESS:          0 HIT:          0 MISS:          0 MSHR_MERGE:          0
cpu0->cpu0_STLB TRANSLATION  ACCESS:          0 HIT:          0 MISS:          0 MSHR_MERGE:          0
cpu0->cpu0_STLB PREFETCH REQUESTED:          0 ISSUED:          0 USEFUL:          0 USELESS:          0
cpu0->cpu0_STLB AVERAGE MISS LATENCY: 747.9 cycles
cpu0->cpu0_L2C TOTAL        ACCESS:     753546 HIT:     524834 MISS:     228712 MSHR_MERGE:          0
cpu0->cpu0_L2C LOAD         ACCESS:     410789 HIT:     237210 MISS:     173579 MSHR_MERGE:          0
cpu0->cpu0_L2C RFO          ACCESS:     136393 HIT:      83912 MISS:      52481 MSHR_MERGE:          0
cpu0->cpu0_L2C PREFETCH     ACCESS:          0 HIT:          0 MISS:          0 MSHR_MERGE:          0
cpu0->cpu0_L2C WRITE        ACCESS:     203771 HIT:     203605 MISS:        166 MSHR_MERGE:          0
cpu0->cpu0_L2C TRANSLATION  ACCESS:       2593 HIT:        107 MISS:       2486 MSHR_MERGE:          0
cpu0->cpu0_L2C PREFETCH REQUESTED:          0 ISSUED:          0 USEFUL:          0 USELESS:          0
cpu0->cpu0_L2C AVERAGE MISS LATENCY: 80.49 cycles
cpu0->cpu0_L1I TOTAL        ACCESS:    1889485 HIT:    1834864 MISS:      54621 MSHR_MERGE:      25080
cpu0->cpu0_L1I LOAD         ACCESS:    1889485 HIT:    1834864 MISS:      54621 MSHR_MERGE:      25080
cpu0->cpu0_L1I RFO          ACCESS:          0 HIT:          0 MISS:          0 MSHR_MERGE:          0
cpu0->cpu0_L1I PREFETCH     ACCESS:          0 HIT:          0 MISS:          0 MSHR_MERGE:          0
cpu0->cpu0_L1I WRITE        ACCESS:          0 HIT:          0 MISS:          0 MSHR_MERGE:          0
cpu0->cpu0_L1I TRANSLATION  ACCESS:          0 HIT:          0 MISS:          0 MSHR_MERGE:          0
cpu0->cpu0_L1I PREFETCH REQUESTED:          0 ISSUED:          0 USEFUL:          0 USELESS:          0
cpu0->cpu0_L1I AVERAGE MISS LATENCY: 23.4 cycles
cpu0->cpu0_L1D TOTAL        ACCESS:    6541127 HIT:    5378227 MISS:    1162900 MSHR_MERGE:     642664
cpu0->cpu0_L1D LOAD         ACCESS:    4645240 HIT:    3932442 MISS:     712798 MSHR_MERGE:     331550
cpu0->cpu0_L1D RFO          ACCESS:          0 HIT:          0 MISS:          0 MSHR_MERGE:          0
cpu0->cpu0_L1D PREFETCH     ACCESS:          0 HIT:          0 MISS:          0 MSHR_MERGE:          0
cpu0->cpu0_L1D WRITE        ACCESS:    1893027 HIT:    1445599 MISS:     447428 MSHR_MERGE:     311033
cpu0->cpu0_L1D TRANSLATION  ACCESS:       2860 HIT:        186 MISS:       2674 MSHR_MERGE:         81
cpu0->cpu0_L1D PREFETCH REQUESTED:          0 ISSUED:          0 USEFUL:          0 USELESS:          0
cpu0->cpu0_L1D AVERAGE MISS LATENCY: 42.96 cycles
cpu0->cpu0_ITLB TOTAL        ACCESS:    1537711 HIT:    1534579 MISS:       3132 MSHR_MERGE:       1893
cpu0->cpu0_ITLB LOAD         ACCESS:    1537711 HIT:    1534579 MISS:       3132 MSHR_MERGE:       1893
cpu0->cpu0_ITLB RFO          ACCESS:          0 HIT:          0 MISS:          0 MSHR_MERGE:          0
cpu0->cpu0_ITLB PREFETCH     ACCESS:          0 HIT:          0 MISS:          0 MSHR_MERGE:          0
cpu0->cpu0_ITLB WRITE        ACCESS:          0 HIT:          0 MISS:          0 MSHR_MERGE:          0
cpu0->cpu0_ITLB TRANSLATION  ACCESS:          0 HIT:          0 MISS:          0 MSHR_MERGE:          0
cpu0->cpu0_ITLB PREFETCH REQUESTED:          0 ISSUED:          0 USEFUL:          0 USELESS:          0
cpu0->cpu0_ITLB AVERAGE MISS LATENCY: 5 cycles
cpu0->cpu0_DTLB TOTAL        ACCESS:    6295055 HIT:    6259666 MISS:      35389 MSHR_MERGE:      14635
cpu0->cpu0_DTLB LOAD         ACCESS:    6295055 HIT:    6259666 MISS:      35389 MSHR_MERGE:      14635
cpu0->cpu0_DTLB RFO          ACCESS:          0 HIT:          0 MISS:          0 MSHR_MERGE:          0
cpu0->cpu0_DTLB PREFETCH     ACCESS:          0 HIT:          0 MISS:          0 MSHR_MERGE:          0
cpu0->cpu0_DTLB WRITE        ACCESS:          0 HIT:          0 MISS:          0 MSHR_MERGE:          0
cpu0->cpu0_DTLB TRANSLATION  ACCESS:          0 HIT:          0 MISS:          0 MSHR_MERGE:          0
cpu0->cpu0_DTLB PREFETCH REQUESTED:          0 ISSUED:          0 USEFUL:          0 USELESS:          0
cpu0->cpu0_DTLB AVERAGE MISS LATENCY: 49.35 cycles
cpu0->LLC TOTAL        ACCESS:     316258 HIT:     237448 MISS:      78810 MSHR_MERGE:          0
cpu0->LLC LOAD         ACCESS:     173579 HIT:     103160 MISS:      70419 MSHR_MERGE:          0
cpu0->LLC RFO          ACCESS:      52481 HIT:      46466 MISS:       6015 MSHR_MERGE:          0
cpu0->LLC PREFETCH     ACCESS:          0 HIT:          0 MISS:          0 MSHR_MERGE:          0
cpu0->LLC WRITE        ACCESS:      87712 HIT:      87106 MISS:        606 MSHR_MERGE:          0
cpu0->LLC TRANSLATION  ACCESS:       2486 HIT:        716 MISS:       1770 MSHR_MERGE:          0
cpu0->LLC PREFETCH REQUESTED:          0 ISSUED:          0 USEFUL:          0 USELESS:          0
cpu0->LLC AVERAGE MISS LATENCY: 189.1 cycles

DRAM Statistics

Channel 0 RQ ROW_BUFFER_HIT:       2149
  ROW_BUFFER_MISS:      76046
  AVG DBUS CONGESTED CYCLE: 15.6
Channel 0 WQ ROW_BUFFER_HIT:       5424
  ROW_BUFFER_MISS:      15017
  FULL:          0
Channel 0 REFRESHES ISSUED:       1717
