[VMEM] WARNING: physical memory size is smaller than virtual memory size.

*** ChampSim Multicore Out-of-Order Simulator ***
Warmup Instructions: 5000000
Simulation Instructions: 25000000
Number of CPUs: 1
Page size: 4096

Off-chip DRAM Size: 16 GiB Channels: 1 Width: 64-bit Data Rate: 3205 MT/s
Warmup finished CPU 0 instructions: 5000002 cycles: 1766136 cumulative IPC: 2.831 (Simulation time: 00 hr 00 min 16 sec)
Warmup complete CPU 0 instructions: 5000002 cycles: 1766136 cumulative IPC: 2.831 (Simulation time: 00 hr 00 min 16 sec)
Heartbeat CPU 0 instructions: 10000001 cycles: 6378576 heartbeat IPC: 1.568 cumulative IPC: 1.084 (Simulation time: 00 hr 00 min 39 sec)
Heartbeat CPU 0 instructions: 20000002 cycles: 15739542 heartbeat IPC: 1.068 cumulative IPC: 1.073 (Simulation time: 00 hr 01 min 25 sec)
Heartbeat CPU 0 instructions: 30000005 cycles: 25008153 heartbeat IPC: 1.079 cumulative IPC: 1.076 (Simulation time: 00 hr 02 min 11 sec)
Simulation finished CPU 0 instructions: 25000003 cycles: 23242017 cumulative IPC: 1.076 (Simulation time: 00 hr 02 min 11 sec)
Simulation complete CPU 0 instructions: 25000003 cycles: 23242017 cumulative IPC: 1.076 (Simulation time: 00 hr 02 min 11 sec)

ChampSim completed all CPUs

=== Simulation ===
CPU 0 runs /Users/aleksandrkozlov/Projects/microarch/hw2/traces/631.deepsjeng_s-928B.champsimtrace.xz

Region of Interest Statistics

CPU 0 cumulative IPC: 1.076 instructions: 25000003 cycles: 23242017
CPU 0 Branch Prediction Accuracy: 90.01% MPKI: 14.97 Average ROB Occupancy at Mispredict: 29.33
Branch type MPKI
BRANCH_DIRECT_JUMP: 0.02156
BRANCH_INDIRECT: 0.00908
BRANCH_CONDITIONAL: 14.48
BRANCH_DIRECT_CALL: 0.02132
BRANCH_INDIRECT_CALL: 0
BRANCH_RETURN: 0.432

cpu0->cpu0_STLB TOTAL        ACCESS:       6386 HIT:       2006 MISS:       4380 MSHR_MERGE:          0
cpu0->cpu0_STLB LOAD         ACCESS:       6386 HIT:       2006 MISS:       4380 MSHR_MERGE:          0
cpu0->cpu0_STLB RFO          ACCESS:          0 HIT:          0 MISS:          0 MSHR_MERGE:          0
cpu0->cpu0_STLB PREFETCH     ACCESS:          0 HIT:          0 MISS:          0 MSHR_MERGE:          0
cpu0->cpu0_STLB WRITE        ACCESS:          0 HIT:          0 MISS:          0 MSHR_MERGE:          0
cpu0->cpu0_STLB TRANSLATION  ACCESS:          0 HIT:          0 MISS:          0 MSHR_MERGE:          0
cpu0->cpu0_STLB PREFETCH REQUESTED:          0 ISSUED:          0 USEFUL:          0 USELESS:          0
cpu0->cpu0_STLB AVERAGE MISS LATENCY: 931.6 cycles
cpu0->cpu0_L2C TOTAL        ACCESS:      70866 HIT:      51404 MISS:      19462 MSHR_MERGE:          0
cpu0->cpu0_L2C LOAD         ACCESS:      36340 HIT:      28872 MISS:       7468 MSHR_MERGE:          0
cpu0->cpu0_L2C RFO          ACCESS:       7704 HIT:       6950 MISS:        754 MSHR_MERGE:          0
cpu0->cpu0_L2C PREFETCH     ACCESS:          0 HIT:          0 MISS:          0 MSHR_MERGE:          0
cpu0->cpu0_L2C WRITE        ACCESS:      13992 HIT:      13960 MISS:         32 MSHR_MERGE:          0
cpu0->cpu0_L2C TRANSLATION  ACCESS:      12830 HIT:       1622 MISS:      11208 MSHR_MERGE:          0
cpu0->cpu0_L2C PREFETCH REQUESTED:          0 ISSUED:          0 USEFUL:          0 USELESS:          0
cpu0->cpu0_L2C AVERAGE MISS LATENCY: 160.8 cycles
cpu0->cpu0_L1I TOTAL        ACCESS:    2892014 HIT:    2864348 MISS:      27666 MSHR_MERGE:       6384
cpu0->cpu0_L1I LOAD         ACCESS:    2892014 HIT:    2864348 MISS:      27666 MSHR_MERGE:       6384
cpu0->cpu0_L1I RFO          ACCESS:          0 HIT:          0 MISS:          0 MSHR_MERGE:          0
cpu0->cpu0_L1I PREFETCH     ACCESS:          0 HIT:          0 MISS:          0 MSHR_MERGE:          0
cpu0->cpu0_L1I WRITE        ACCESS:          0 HIT:          0 MISS:          0 MSHR_MERGE:          0
cpu0->cpu0_L1I TRANSLATION  ACCESS:          0 HIT:          0 MISS:          0 MSHR_MERGE:          0
cpu0->cpu0_L1I PREFETCH REQUESTED:          0 ISSUED:          0 USEFUL:          0 USELESS:          0
cpu0->cpu0_L1I AVERAGE MISS LATENCY: 7.207 cycles
cpu0->cpu0_L1D TOTAL        ACCESS:    7682515 HIT:    7629280 MISS:      53235 MSHR_MERGE:      17640
cpu0->cpu0_L1D LOAD         ACCESS:    4637102 HIT:    4617474 MISS:      19628 MSHR_MERGE:       4567
cpu0->cpu0_L1D RFO          ACCESS:          0 HIT:          0 MISS:          0 MSHR_MERGE:          0
cpu0->cpu0_L1D PREFETCH     ACCESS:          0 HIT:          0 MISS:          0 MSHR_MERGE:          0
cpu0->cpu0_L1D WRITE        ACCESS:    3032222 HIT:    3011478 MISS:      20744 MSHR_MERGE:      13040
cpu0->cpu0_L1D TRANSLATION  ACCESS:      13191 HIT:        328 MISS:      12863 MSHR_MERGE:         33
cpu0->cpu0_L1D PREFETCH REQUESTED:          0 ISSUED:          0 USEFUL:          0 USELESS:          0
cpu0->cpu0_L1D AVERAGE MISS LATENCY: 96.41 cycles
cpu0->cpu0_ITLB TOTAL        ACCESS:    2451996 HIT:    2451996 MISS:          0 MSHR_MERGE:          0
cpu0->cpu0_ITLB LOAD         ACCESS:    2451996 HIT:    2451996 MISS:          0 MSHR_MERGE:          0
cpu0->cpu0_ITLB RFO          ACCESS:          0 HIT:          0 MISS:          0 MSHR_MERGE:          0
cpu0->cpu0_ITLB PREFETCH     ACCESS:          0 HIT:          0 MISS:          0 MSHR_MERGE:          0
cpu0->cpu0_ITLB WRITE        ACCESS:          0 HIT:          0 MISS:          0 MSHR_MERGE:          0
cpu0->cpu0_ITLB TRANSLATION  ACCESS:          0 HIT:          0 MISS:          0 MSHR_MERGE:          0
cpu0->cpu0_ITLB PREFETCH REQUESTED:          0 ISSUED:          0 USEFUL:          0 USELESS:          0
cpu0->cpu0_ITLB AVERAGE MISS LATENCY: - cycles
cpu0->cpu0_DTLB TOTAL        ACCESS:    7211154 HIT:    7199238 MISS:      11916 MSHR_MERGE:       5530
cpu0->cpu0_DTLB LOAD         ACCESS:    7211154 HIT:    7199238 MISS:      11916 MSHR_MERGE:       5530
cpu0->cpu0_DTLB RFO          ACCESS:          0 HIT:          0 MISS:          0 MSHR_MERGE:          0
cpu0->cpu0_DTLB PREFETCH     ACCESS:          0 HIT:          0 MISS:          0 MSHR_MERGE:          0
cpu0->cpu0_DTLB WRITE        ACCESS:          0 HIT:          0 MISS:          0 MSHR_MERGE:          0
cpu0->cpu0_DTLB TRANSLATION  ACCESS:          0 HIT:          0 MISS:          0 MSHR_MERGE:          0
cpu0->cpu0_DTLB PREFETCH REQUESTED:          0 ISSUED:          0 USEFUL:          0 USELESS:          0
cpu0->cpu0_DTLB AVERAGE MISS LATENCY: 644.7 cycles
cpu0->LLC TOTAL        ACCESS:      24194 HIT:       6633 MISS:      17561 MSHR_MERGE:          0
cpu0->LLC LOAD         ACCESS:       7468 HIT:        497 MISS:       6971 MSHR_MERGE:          0
cpu0->LLC RFO          ACCESS:        754 HIT:        302 MISS:        452 MSHR_MERGE:          0
cpu0->LLC PREFETCH     ACCESS:          0 HIT:          0 MISS:          0 MSHR_MERGE:          0
cpu0->LLC WRITE        ACCESS:       4764 HIT:       4761 MISS:          3 MSHR_MERGE:          0
cpu0->LLC TRANSLATION  ACCESS:      11208 HIT:       1073 MISS:      10135 MSHR_MERGE:          0
cpu0->LLC PREFETCH REQUESTED:          0 ISSUED:          0 USEFUL:          0 USELESS:          0
cpu0->LLC AVERAGE MISS LATENCY: 160.6 cycles

DRAM Statistics

Channel 0 RQ ROW_BUFFER_HIT:         29
  ROW_BUFFER_MISS:      17529
  AVG DBUS CONGESTED CYCLE: 3.121
Channel 0 WQ ROW_BUFFER_HIT:          0
  ROW_BUFFER_MISS:        103
  FULL:          0
Channel 0 REFRESHES ISSUED:       1937
