[VMEM] WARNING: physical memory size is smaller than virtual memory size.

*** ChampSim Multicore Out-of-Order Simulator ***
Warmup Instructions: 5000000
Simulation Instructions: 25000000
Number of CPUs: 1
Page size: 4096

Off-chip DRAM Size: 16 GiB Channels: 1 Width: 64-bit Data Rate: 3205 MT/s
Warmup finished CPU 0 instructions: 5000001 cycles: 1343832 cumulative IPC: 3.721 (Simulation time: 00 hr 00 min 13 sec)
Warmup complete CPU 0 instructions: 5000001 cycles: 1343832 cumulative IPC: 3.721 (Simulation time: 00 hr 00 min 13 sec)
Heartbeat CPU 0 instructions: 10000002 cycles: 6220452 heartbeat IPC: 1.608 cumulative IPC: 1.025 (Simulation time: 00 hr 00 min 36 sec)
Heartbeat CPU 0 instructions: 20000003 cycles: 20229386 heartbeat IPC: 0.7138 cumulative IPC: 0.7943 (Simulation time: 00 hr 01 min 41 sec)
Simulation finished CPU 0 instructions: 25000000 cycles: 28861634 cumulative IPC: 0.8662 (Simulation time: 00 hr 02 min 28 sec)
Simulation complete CPU 0 instructions: 25000000 cycles: 28861634 cumulative IPC: 0.8662 (Simulation time: 00 hr 02 min 28 sec)

ChampSim completed all CPUs

=== Simulation ===
CPU 0 runs /Users/aleksandrkozlov/Projects/microarch/hw2/traces/641.leela_s-149B.champsimtrace.xz

Region of Interest Statistics

CPU 0 cumulative IPC: 0.8662 instructions: 25000000 cycles: 28861634
CPU 0 Branch Prediction Accuracy: 89.11% MPKI: 18.82 Average ROB Occupancy at Mispredict: 20.64
Branch type MPKI
BRANCH_DIRECT_JUMP: 0.1037
BRANCH_INDIRECT: 0.02064
BRANCH_CONDITIONAL: 18.64
BRANCH_DIRECT_CALL: 0.01192
BRANCH_INDIRECT_CALL: 0.0072
BRANCH_RETURN: 0.03844

cpu0->cpu0_STLB TOTAL        ACCESS:      12554 HIT:      12076 MISS:        478 MSHR_MERGE:          0
cpu0->cpu0_STLB LOAD         ACCESS:      12554 HIT:      12076 MISS:        478 MSHR_MERGE:          0
cpu0->cpu0_STLB RFO          ACCESS:          0 HIT:          0 MISS:          0 MSHR_MERGE:          0
cpu0->cpu0_STLB PREFETCH     ACCESS:          0 HIT:          0 MISS:          0 MSHR_MERGE:          0
cpu0->cpu0_STLB WRITE        ACCESS:          0 HIT:          0 MISS:          0 MSHR_MERGE:          0
cpu0->cpu0_STLB TRANSLATION  ACCESS:          0 HIT:          0 MISS:          0 MSHR_MERGE:          0
cpu0->cpu0_STLB PREFETCH REQUESTED:          0 ISSUED:          0 USEFUL:          0 USELESS:          0
cpu0->cpu0_STLB AVERAGE MISS LATENCY: 734.3 cycles
cpu0->cpu0_L2C TOTAL        ACCESS:     292664 HIT:     201788 MISS:      90876 MSHR_MERGE:          0
cpu0->cpu0_L2C LOAD         ACCESS:     124408 HIT:      66560 MISS:      57848 MSHR_MERGE:          0
cpu0->cpu0_L2C RFO          ACCESS:      63875 HIT:      31637 MISS:      32238 MSHR_MERGE:          0
cpu0->cpu0_L2C PREFETCH     ACCESS:          0 HIT:          0 MISS:          0 MSHR_MERGE:          0
cpu0->cpu0_L2C WRITE        ACCESS:     103630 HIT:     103588 MISS:         42 MSHR_MERGE:          0
cpu0->cpu0_L2C TRANSLATION  ACCESS:        751 HIT:          3 MISS:        748 MSHR_MERGE:          0
cpu0->cpu0_L2C PREFETCH REQUESTED:          0 ISSUED:          0 USEFUL:          0 USELESS:          0
cpu0->cpu0_L2C AVERAGE MISS LATENCY: 66.52 cycles
cpu0->cpu0_L1I TOTAL        ACCESS:    3050907 HIT:    3039758 MISS:      11149 MSHR_MERGE:       3869
cpu0->cpu0_L1I LOAD         ACCESS:    3050907 HIT:    3039758 MISS:      11149 MSHR_MERGE:       3869
cpu0->cpu0_L1I RFO          ACCESS:          0 HIT:          0 MISS:          0 MSHR_MERGE:          0
cpu0->cpu0_L1I PREFETCH     ACCESS:          0 HIT:          0 MISS:          0 MSHR_MERGE:          0
cpu0->cpu0_L1I WRITE        ACCESS:          0 HIT:          0 MISS:          0 MSHR_MERGE:          0
cpu0->cpu0_L1I TRANSLATION  ACCESS:          0 HIT:          0 MISS:          0 MSHR_MERGE:          0
cpu0->cpu0_L1I PREFETCH REQUESTED:          0 ISSUED:          0 USEFUL:          0 USELESS:          0
cpu0->cpu0_L1I AVERAGE MISS LATENCY: 30.31 cycles
cpu0->cpu0_L1D TOTAL        ACCESS:    8187919 HIT:    7756240 MISS:     431679 MSHR_MERGE:     249925
cpu0->cpu0_L1D LOAD         ACCESS:    4630082 HIT:    4451700 MISS:     178382 MSHR_MERGE:      61254
cpu0->cpu0_L1D RFO          ACCESS:          0 HIT:          0 MISS:          0 MSHR_MERGE:          0
cpu0->cpu0_L1D PREFETCH     ACCESS:          0 HIT:          0 MISS:          0 MSHR_MERGE:          0
cpu0->cpu0_L1D WRITE        ACCESS:    3556880 HIT:    3304334 MISS:     252546 MSHR_MERGE:     188671
cpu0->cpu0_L1D TRANSLATION  ACCESS:        957 HIT:        206 MISS:        751 MSHR_MERGE:          0
cpu0->cpu0_L1D PREFETCH REQUESTED:          0 ISSUED:          0 USEFUL:          0 USELESS:          0
cpu0->cpu0_L1D AVERAGE MISS LATENCY: 40.9 cycles
cpu0->cpu0_ITLB TOTAL        ACCESS:    2773366 HIT:    2772752 MISS:        614 MSHR_MERGE:        328
cpu0->cpu0_ITLB LOAD         ACCESS:    2773366 HIT:    2772752 MISS:        614 MSHR_MERGE:        328
cpu0->cpu0_ITLB RFO          ACCESS:          0 HIT:          0 MISS:          0 MSHR_MERGE:          0
cpu0->cpu0_ITLB PREFETCH     ACCESS:          0 HIT:          0 MISS:          0 MSHR_MERGE:          0
cpu0->cpu0_ITLB WRITE        ACCESS:          0 HIT:          0 MISS:          0 MSHR_MERGE:          0
cpu0->cpu0_ITLB TRANSLATION  ACCESS:          0 HIT:          0 MISS:          0 MSHR_MERGE:          0
cpu0->cpu0_ITLB PREFETCH REQUESTED:          0 ISSUED:          0 USEFUL:          0 USELESS:          0
cpu0->cpu0_ITLB AVERAGE MISS LATENCY: 119.7 cycles
cpu0->cpu0_DTLB TOTAL        ACCESS:    7763869 HIT:    7746238 MISS:      17631 MSHR_MERGE:       5363
cpu0->cpu0_DTLB LOAD         ACCESS:    7763869 HIT:    7746238 MISS:      17631 MSHR_MERGE:       5363
cpu0->cpu0_DTLB RFO          ACCESS:          0 HIT:          0 MISS:          0 MSHR_MERGE:          0
cpu0->cpu0_DTLB PREFETCH     ACCESS:          0 HIT:          0 MISS:          0 MSHR_MERGE:          0
cpu0->cpu0_DTLB WRITE        ACCESS:          0 HIT:          0 MISS:          0 MSHR_MERGE:          0
cpu0->cpu0_DTLB TRANSLATION  ACCESS:          0 HIT:          0 MISS:          0 MSHR_MERGE:          0
cpu0->cpu0_DTLB PREFETCH REQUESTED:          0 ISSUED:          0 USEFUL:          0 USELESS:          0
cpu0->cpu0_DTLB AVERAGE MISS LATENCY: 30.98 cycles
cpu0->LLC TOTAL        ACCESS:     147953 HIT:     120672 MISS:      27281 MSHR_MERGE:          0
cpu0->LLC LOAD         ACCESS:      57848 HIT:      39293 MISS:      18555 MSHR_MERGE:          0
cpu0->LLC RFO          ACCESS:      32238 HIT:      24258 MISS:       7980 MSHR_MERGE:          0
cpu0->LLC PREFETCH     ACCESS:          0 HIT:          0 MISS:          0 MSHR_MERGE:          0
cpu0->LLC WRITE        ACCESS:      57119 HIT:      57115 MISS:          4 MSHR_MERGE:          0
cpu0->LLC TRANSLATION  ACCESS:        748 HIT:          6 MISS:        742 MSHR_MERGE:          0
cpu0->LLC PREFETCH REQUESTED:          0 ISSUED:          0 USEFUL:          0 USELESS:          0
cpu0->LLC AVERAGE MISS LATENCY: 170.6 cycles

DRAM Statistics

Channel 0 RQ ROW_BUFFER_HIT:       2743
  ROW_BUFFER_MISS:      24530
  AVG DBUS CONGESTED CYCLE: 15.83
Channel 0 WQ ROW_BUFFER_HIT:        320
  ROW_BUFFER_MISS:       1159
  FULL:          0
Channel 0 REFRESHES ISSUED:       2406
