[VMEM] WARNING: physical memory size is smaller than virtual memory size.

*** ChampSim Multicore Out-of-Order Simulator ***
Warmup Instructions: 5000000
Simulation Instructions: 25000000
Number of CPUs: 1
Page size: 4096

Off-chip DRAM Size: 16 GiB Channels: 1 Width: 64-bit Data Rate: 3205 MT/s
Warmup finished CPU 0 instructions: 5000001 cycles: 1471214 cumulative IPC: 3.399 (Simulation time: 00 hr 00 min 14 sec)
Warmup complete CPU 0 instructions: 5000001 cycles: 1471214 cumulative IPC: 3.399 (Simulation time: 00 hr 00 min 14 sec)
Heartbeat CPU 0 instructions: 10000004 cycles: 3927265 heartbeat IPC: 2.546 cumulative IPC: 2.036 (Simulation time: 00 hr 00 min 36 sec)
Heartbeat CPU 0 instructions: 20000005 cycles: 13429833 heartbeat IPC: 1.052 cumulative IPC: 1.254 (Simulation time: 00 hr 01 min 47 sec)
Simulation finished CPU 0 instructions: 25000001 cycles: 19206449 cumulative IPC: 1.302 (Simulation time: 00 hr 02 min 44 sec)
Simulation complete CPU 0 instructions: 25000001 cycles: 19206449 cumulative IPC: 1.302 (Simulation time: 00 hr 02 min 44 sec)

ChampSim completed all CPUs

=== Simulation ===
CPU 0 runs /Users/aleksandrkozlov/Projects/microarch/hw2/traces/654.roms_s-293B.champsimtrace.xz

Region of Interest Statistics

CPU 0 cumulative IPC: 1.302 instructions: 25000001 cycles: 19206449
CPU 0 Branch Prediction Accuracy: 99.8% MPKI: 0.02152 Average ROB Occupancy at Mispredict: 336.2
Branch type MPKI
BRANCH_DIRECT_JUMP: 0
BRANCH_INDIRECT: 0
BRANCH_CONDITIONAL: 0.02152
BRANCH_DIRECT_CALL: 0
BRANCH_INDIRECT_CALL: 0
BRANCH_RETURN: 0

cpu0->cpu0_STLB TOTAL        ACCESS:       6421 HIT:       4169 MISS:       2252 MSHR_MERGE:          0
cpu0->cpu0_STLB LOAD         ACCESS:       6421 HIT:       4169 MISS:       2252 MSHR_MERGE:          0
cpu0->cpu0_STLB RFO          ACCESS:          0 HIT:          0 MISS:          0 MSHR_MERGE:          0
cpu0->cpu0_STLB PREFETCH     ACCESS:          0 HIT:          0 MISS:          0 MSHR_MERGE:          0
cpu0->cpu0_STLB WRITE        ACCESS:          0 HIT:          0 MISS:          0 MSHR_MERGE:          0
cpu0->cpu0_STLB TRANSLATION  ACCESS:          0 HIT:          0 MISS:          0 MSHR_MERGE:          0
cpu0->cpu0_STLB PREFETCH REQUESTED:          0 ISSUED:          0 USEFUL:          0 USELESS:          0
cpu0->cpu0_STLB AVERAGE MISS LATENCY: 874.6 cycles
cpu0->cpu0_L2C TOTAL        ACCESS:     401557 HIT:     165474 MISS:     236083 MSHR_MERGE:          0
cpu0->cpu0_L2C LOAD         ACCESS:     146871 HIT:      39185 MISS:     107686 MSHR_MERGE:          0
cpu0->cpu0_L2C RFO          ACCESS:     124932 HIT:        711 MISS:     124221 MSHR_MERGE:          0
cpu0->cpu0_L2C PREFETCH     ACCESS:          0 HIT:          0 MISS:          0 MSHR_MERGE:          0
cpu0->cpu0_L2C WRITE        ACCESS:     125179 HIT:     125084 MISS:         95 MSHR_MERGE:          0
cpu0->cpu0_L2C TRANSLATION  ACCESS:       4575 HIT:        494 MISS:       4081 MSHR_MERGE:          0
cpu0->cpu0_L2C PREFETCH REQUESTED:          0 ISSUED:          0 USEFUL:          0 USELESS:          0
cpu0->cpu0_L2C AVERAGE MISS LATENCY: 173.3 cycles
cpu0->cpu0_L1I TOTAL        ACCESS:    4941943 HIT:    4941935 MISS:          8 MSHR_MERGE:          2
cpu0->cpu0_L1I LOAD         ACCESS:    4941943 HIT:    4941935 MISS:          8 MSHR_MERGE:          2
cpu0->cpu0_L1I RFO          ACCESS:          0 HIT:          0 MISS:          0 MSHR_MERGE:          0
cpu0->cpu0_L1I PREFETCH     ACCESS:          0 HIT:          0 MISS:          0 MSHR_MERGE:          0
cpu0->cpu0_L1I WRITE        ACCESS:          0 HIT:          0 MISS:          0 MSHR_MERGE:          0
cpu0->cpu0_L1I TRANSLATION  ACCESS:          0 HIT:          0 MISS:          0 MSHR_MERGE:          0
cpu0->cpu0_L1I PREFETCH REQUESTED:          0 ISSUED:          0 USEFUL:          0 USELESS:          0
cpu0->cpu0_L1I AVERAGE MISS LATENCY: 200 cycles
cpu0->cpu0_L1D TOTAL        ACCESS:    7645566 HIT:    7007789 MISS:     637777 MSHR_MERGE:     361380
cpu0->cpu0_L1D LOAD         ACCESS:    5273317 HIT:    5030968 MISS:     242349 MSHR_MERGE:      95484
cpu0->cpu0_L1D RFO          ACCESS:          0 HIT:          0 MISS:          0 MSHR_MERGE:          0
cpu0->cpu0_L1D PREFETCH     ACCESS:          0 HIT:          0 MISS:          0 MSHR_MERGE:          0
cpu0->cpu0_L1D WRITE        ACCESS:    2366627 HIT:    1975793 MISS:     390834 MSHR_MERGE:     265877
cpu0->cpu0_L1D TRANSLATION  ACCESS:       5622 HIT:       1028 MISS:       4594 MSHR_MERGE:         19
cpu0->cpu0_L1D PREFETCH REQUESTED:          0 ISSUED:          0 USEFUL:          0 USELESS:          0
cpu0->cpu0_L1D AVERAGE MISS LATENCY: 156.9 cycles
cpu0->cpu0_ITLB TOTAL        ACCESS:    3623521 HIT:    3623521 MISS:          0 MSHR_MERGE:          0
cpu0->cpu0_ITLB LOAD         ACCESS:    3623521 HIT:    3623521 MISS:          0 MSHR_MERGE:          0
cpu0->cpu0_ITLB RFO          ACCESS:          0 HIT:          0 MISS:          0 MSHR_MERGE:          0
cpu0->cpu0_ITLB PREFETCH     ACCESS:          0 HIT:          0 MISS:          0 MSHR_MERGE:          0
cpu0->cpu0_ITLB WRITE        ACCESS:          0 HIT:          0 MISS:          0 MSHR_MERGE:          0
cpu0->cpu0_ITLB TRANSLATION  ACCESS:          0 HIT:          0 MISS:          0 MSHR_MERGE:          0
cpu0->cpu0_ITLB PREFETCH REQUESTED:          0 ISSUED:          0 USEFUL:          0 USELESS:          0
cpu0->cpu0_ITLB AVERAGE MISS LATENCY: - cycles
cpu0->cpu0_DTLB TOTAL        ACCESS:    7204287 HIT:    7188505 MISS:      15782 MSHR_MERGE:       9361
cpu0->cpu0_DTLB LOAD         ACCESS:    7204287 HIT:    7188505 MISS:      15782 MSHR_MERGE:       9361
cpu0->cpu0_DTLB RFO          ACCESS:          0 HIT:          0 MISS:          0 MSHR_MERGE:          0
cpu0->cpu0_DTLB PREFETCH     ACCESS:          0 HIT:          0 MISS:          0 MSHR_MERGE:          0
cpu0->cpu0_DTLB WRITE        ACCESS:          0 HIT:          0 MISS:          0 MSHR_MERGE:          0
cpu0->cpu0_DTLB TRANSLATION  ACCESS:          0 HIT:          0 MISS:          0 MSHR_MERGE:          0
cpu0->cpu0_DTLB PREFETCH REQUESTED:          0 ISSUED:          0 USEFUL:          0 USELESS:          0
cpu0->cpu0_DTLB AVERAGE MISS LATENCY: 312.1 cycles
cpu0->LLC TOTAL        ACCESS:     357997 HIT:     198377 MISS:     159620 MSHR_MERGE:          0
cpu0->LLC LOAD         ACCESS:     107686 HIT:      43585 MISS:      64101 MSHR_MERGE:          0
cpu0->LLC RFO          ACCESS:     124221 HIT:      32719 MISS:      91502 MSHR_MERGE:          0
cpu0->LLC PREFETCH     ACCESS:          0 HIT:          0 MISS:          0 MSHR_MERGE:          0
cpu0->LLC WRITE        ACCESS:     122009 HIT:     121992 MISS:         17 MSHR_MERGE:          0
cpu0->LLC TRANSLATION  ACCESS:       4081 HIT:         81 MISS:       4000 MSHR_MERGE:          0
cpu0->LLC PREFETCH REQUESTED:          0 ISSUED:          0 USEFUL:          0 USELESS:          0
cpu0->LLC AVERAGE MISS LATENCY: 233.2 cycles

DRAM Statistics

Channel 0 RQ ROW_BUFFER_HIT:        696
  ROW_BUFFER_MISS:     158662
  AVG DBUS CONGESTED CYCLE: 6.971
Channel 0 WQ ROW_BUFFER_HIT:      29004
  ROW_BUFFER_MISS:      67756
  FULL:          0
Channel 0 REFRESHES ISSUED:       1601
