[VMEM] WARNING: physical memory size is smaller than virtual memory size.

*** ChampSim Multicore Out-of-Order Simulator ***
Warmup Instructions: 5000000
Simulation Instructions: 25000000
Number of CPUs: 1
Page size: 4096

Off-chip DRAM Size: 16 GiB Channels: 1 Width: 64-bit Data Rate: 3205 MT/s
Warmup finished CPU 0 instructions: 5000003 cycles: 1276653 cumulative IPC: 3.916 (Simulation time: 00 hr 00 min 12 sec)
Warmup complete CPU 0 instructions: 5000003 cycles: 1276653 cumulative IPC: 3.916 (Simulation time: 00 hr 00 min 12 sec)
Heartbeat CPU 0 instructions: 10000003 cycles: 4862538 heartbeat IPC: 2.057 cumulative IPC: 1.394 (Simulation time: 00 hr 00 min 29 sec)
Heartbeat CPU 0 instructions: 20000003 cycles: 11888555 heartbeat IPC: 1.423 cumulative IPC: 1.414 (Simulation time: 00 hr 01 min 04 sec)
Heartbeat CPU 0 instructions: 30000003 cycles: 19079066 heartbeat IPC: 1.391 cumulative IPC: 1.404 (Simulation time: 00 hr 01 min 39 sec)
Simulation finished CPU 0 instructions: 25000000 cycles: 17802413 cumulative IPC: 1.404 (Simulation time: 00 hr 01 min 39 sec)
Simulation complete CPU 0 instructions: 25000000 cycles: 17802413 cumulative IPC: 1.404 (Simulation time: 00 hr 01 min 39 sec)

ChampSim completed all CPUs

=== Simulation ===
CPU 0 runs /Users/aleksandrkozlov/Projects/microarch/hw2/traces/657.xz_s-4994B.champsimtrace.xz

Region of Interest Statistics

CPU 0 cumulative IPC: 1.404 instructions: 25000000 cycles: 17802413
CPU 0 Branch Prediction Accuracy: 85.76% MPKI: 14.95 Average ROB Occupancy at Mispredict: 28.81
Branch type MPKI
BRANCH_DIRECT_JUMP: 0.0002
BRANCH_INDIRECT: 0.00152
BRANCH_CONDITIONAL: 14.95
BRANCH_DIRECT_CALL: 0
BRANCH_INDIRECT_CALL: 0
BRANCH_RETURN: 8e-05

cpu0->cpu0_STLB TOTAL        ACCESS:         85 HIT:         12 MISS:         73 MSHR_MERGE:          0
cpu0->cpu0_STLB LOAD         ACCESS:         85 HIT:         12 MISS:         73 MSHR_MERGE:          0
cpu0->cpu0_STLB RFO          ACCESS:          0 HIT:          0 MISS:          0 MSHR_MERGE:          0
cpu0->cpu0_STLB PREFETCH     ACCESS:          0 HIT:          0 MISS:          0 MSHR_MERGE:          0
cpu0->cpu0_STLB WRITE        ACCESS:          0 HIT:          0 MISS:          0 MSHR_MERGE:          0
cpu0->cpu0_STLB TRANSLATION  ACCESS:          0 HIT:          0 MISS:          0 MSHR_MERGE:          0
cpu0->cpu0_STLB PREFETCH REQUESTED:          0 ISSUED:          0 USEFUL:          0 USELESS:          0
cpu0->cpu0_STLB AVERAGE MISS LATENCY: 695.6 cycles
cpu0->cpu0_L2C TOTAL        ACCESS:      13603 HIT:       9369 MISS:       4234 MSHR_MERGE:          0
cpu0->cpu0_L2C LOAD         ACCESS:       3812 HIT:       2523 MISS:       1289 MSHR_MERGE:          0
cpu0->cpu0_L2C RFO          ACCESS:       4137 HIT:       1288 MISS:       2849 MSHR_MERGE:          0
cpu0->cpu0_L2C PREFETCH     ACCESS:          0 HIT:          0 MISS:          0 MSHR_MERGE:          0
cpu0->cpu0_L2C WRITE        ACCESS:       5533 HIT:       5532 MISS:          1 MSHR_MERGE:          0
cpu0->cpu0_L2C TRANSLATION  ACCESS:        121 HIT:         26 MISS:         95 MSHR_MERGE:          0
cpu0->cpu0_L2C PREFETCH REQUESTED:          0 ISSUED:          0 USEFUL:          0 USELESS:          0
cpu0->cpu0_L2C AVERAGE MISS LATENCY: 162.7 cycles
cpu0->cpu0_L1I TOTAL        ACCESS:     530117 HIT:     530110 MISS:          7 MSHR_MERGE:          1
cpu0->cpu0_L1I LOAD         ACCESS:     530117 HIT:     530110 MISS:          7 MSHR_MERGE:          1
cpu0->cpu0_L1I RFO          ACCESS:          0 HIT:          0 MISS:          0 MSHR_MERGE:          0
cpu0->cpu0_L1I PREFETCH     ACCESS:          0 HIT:          0 MISS:          0 MSHR_MERGE:          0
cpu0->cpu0_L1I WRITE        ACCESS:          0 HIT:          0 MISS:          0 MSHR_MERGE:          0
cpu0->cpu0_L1I TRANSLATION  ACCESS:          0 HIT:          0 MISS:          0 MSHR_MERGE:          0
cpu0->cpu0_L1I PREFETCH REQUESTED:          0 ISSUED:          0 USEFUL:          0 USELESS:          0
cpu0->cpu0_L1I AVERAGE MISS LATENCY: 176.5 cycles
cpu0->cpu0_L1D TOTAL        ACCESS:    3917177 HIT:    3889707 MISS:      27470 MSHR_MERGE:      19405
cpu0->cpu0_L1D LOAD         ACCESS:    2357469 HIT:    2352479 MISS:       4990 MSHR_MERGE:       1184
cpu0->cpu0_L1D RFO          ACCESS:          0 HIT:          0 MISS:          0 MSHR_MERGE:          0
cpu0->cpu0_L1D PREFETCH     ACCESS:          0 HIT:          0 MISS:          0 MSHR_MERGE:          0
cpu0->cpu0_L1D WRITE        ACCESS:    1559562 HIT:    1537203 MISS:      22359 MSHR_MERGE:      18221
cpu0->cpu0_L1D TRANSLATION  ACCESS:        146 HIT:         25 MISS:        121 MSHR_MERGE:          0
cpu0->cpu0_L1D PREFETCH REQUESTED:          0 ISSUED:          0 USEFUL:          0 USELESS:          0
cpu0->cpu0_L1D AVERAGE MISS LATENCY: 93.82 cycles
cpu0->cpu0_ITLB TOTAL        ACCESS:     472525 HIT:     472525 MISS:          0 MSHR_MERGE:          0
cpu0->cpu0_ITLB LOAD         ACCESS:     472525 HIT:     472525 MISS:          0 MSHR_MERGE:          0
cpu0->cpu0_ITLB RFO          ACCESS:          0 HIT:          0 MISS:          0 MSHR_MERGE:          0
cpu0->cpu0_ITLB PREFETCH     ACCESS:          0 HIT:          0 MISS:          0 MSHR_MERGE:          0
cpu0->cpu0_ITLB WRITE        ACCESS:          0 HIT:          0 MISS:          0 MSHR_MERGE:          0
cpu0->cpu0_ITLB TRANSLATION  ACCESS:          0 HIT:          0 MISS:          0 MSHR_MERGE:          0
cpu0->cpu0_ITLB PREFETCH REQUESTED:          0 ISSUED:          0 USEFUL:          0 USELESS:          0
cpu0->cpu0_ITLB AVERAGE MISS LATENCY: - cycles
cpu0->cpu0_DTLB TOTAL        ACCESS:    3686839 HIT:    3686463 MISS:        376 MSHR_MERGE:        291
cpu0->cpu0_DTLB LOAD         ACCESS:    3686839 HIT:    3686463 MISS:        376 MSHR_MERGE:        291
cpu0->cpu0_DTLB RFO          ACCESS:          0 HIT:          0 MISS:          0 MSHR_MERGE:          0
cpu0->cpu0_DTLB PREFETCH     ACCESS:          0 HIT:          0 MISS:          0 MSHR_MERGE:          0
cpu0->cpu0_DTLB WRITE        ACCESS:          0 HIT:          0 MISS:          0 MSHR_MERGE:          0
cpu0->cpu0_DTLB TRANSLATION  ACCESS:          0 HIT:          0 MISS:          0 MSHR_MERGE:          0
cpu0->cpu0_DTLB PREFETCH REQUESTED:          0 ISSUED:          0 USEFUL:          0 USELESS:          0
cpu0->cpu0_DTLB AVERAGE MISS LATENCY: 603.2 cycles
cpu0->LLC TOTAL        ACCESS:       4250 HIT:         18 MISS:       4232 MSHR_MERGE:          0
cpu0->LLC LOAD         ACCESS:       1289 HIT:          1 MISS:       1288 MSHR_MERGE:          0
cpu0->LLC RFO          ACCESS:       2849 HIT:          0 MISS:       2849 MSHR_MERGE:          0
cpu0->LLC PREFETCH     ACCESS:          0 HIT:          0 MISS:          0 MSHR_MERGE:          0
cpu0->LLC WRITE        ACCESS:         17 HIT:         17 MISS:          0 MSHR_MERGE:          0
cpu0->LLC TRANSLATION  ACCESS:         95 HIT:          0 MISS:         95 MSHR_MERGE:          0
cpu0->LLC PREFETCH REQUESTED:          0 ISSUED:          0 USEFUL:          0 USELESS:          0
cpu0->LLC AVERAGE MISS LATENCY: 146.8 cycles

DRAM Statistics

Channel 0 RQ ROW_BUFFER_HIT:       1048
  ROW_BUFFER_MISS:       3184
  AVG DBUS CONGESTED CYCLE: 2.811
Channel 0 WQ ROW_BUFFER_HIT:          0
  ROW_BUFFER_MISS:          0
  FULL:          0
Channel 0 REFRESHES ISSUED:       1483
