[VMEM] WARNING: physical memory size is smaller than virtual memory size.

*** ChampSim Multicore Out-of-Order Simulator ***
Warmup Instructions: 5000000
Simulation Instructions: 25000000
Number of CPUs: 1
Page size: 4096

Off-chip DRAM Size: 16 GiB Channels: 1 Width: 64-bit Data Rate: 3205 MT/s
Warmup finished CPU 0 instructions: 5000003 cycles: 1406417 cumulative IPC: 3.555 (Simulation time: 00 hr 00 min 23 sec)
Warmup complete CPU 0 instructions: 5000003 cycles: 1406417 cumulative IPC: 3.555 (Simulation time: 00 hr 00 min 23 sec)
Heartbeat CPU 0 instructions: 10000004 cycles: 7089040 heartbeat IPC: 1.411 cumulative IPC: 0.8799 (Simulation time: 00 hr 01 min 07 sec)
Heartbeat CPU 0 instructions: 20000004 cycles: 18412099 heartbeat IPC: 0.8832 cumulative IPC: 0.8821 (Simulation time: 00 hr 02 min 36 sec)
Heartbeat CPU 0 instructions: 30000005 cycles: 29716759 heartbeat IPC: 0.8846 cumulative IPC: 0.8831 (Simulation time: 00 hr 04 min 13 sec)
Simulation finished CPU 0 instructions: 25000002 cycles: 28310342 cumulative IPC: 0.8831 (Simulation time: 00 hr 04 min 13 sec)
Simulation complete CPU 0 instructions: 25000002 cycles: 28310342 cumulative IPC: 0.8831 (Simulation time: 00 hr 04 min 13 sec)

ChampSim completed all CPUs

=== Simulation ===
CPU 0 runs ../../hw2/traces/603.bwaves_s-2931B.champsimtrace.xz

Region of Interest Statistics

CPU 0 cumulative IPC: 0.8831 instructions: 25000002 cycles: 28310342
CPU 0 Branch Prediction Accuracy: 80.62% MPKI: 1.636 Average ROB Occupancy at Mispredict: 300.4
Branch type MPKI
BRANCH_DIRECT_JUMP: 0
BRANCH_INDIRECT: 0
BRANCH_CONDITIONAL: 1.636
BRANCH_DIRECT_CALL: 0
BRANCH_INDIRECT_CALL: 0
BRANCH_RETURN: 0

cpu0->cpu0_STLB TOTAL        ACCESS:      42964 HIT:      37632 MISS:       5332 MSHR_MERGE:          0
cpu0->cpu0_STLB LOAD         ACCESS:      42964 HIT:      37632 MISS:       5332 MSHR_MERGE:          0
cpu0->cpu0_STLB RFO          ACCESS:          0 HIT:          0 MISS:          0 MSHR_MERGE:          0
cpu0->cpu0_STLB PREFETCH     ACCESS:          0 HIT:          0 MISS:          0 MSHR_MERGE:          0
cpu0->cpu0_STLB WRITE        ACCESS:          0 HIT:          0 MISS:          0 MSHR_MERGE:          0
cpu0->cpu0_STLB TRANSLATION  ACCESS:          0 HIT:          0 MISS:          0 MSHR_MERGE:          0
cpu0->cpu0_STLB PREFETCH REQUESTED:          0 ISSUED:          0 USEFUL:          0 USELESS:          0
cpu0->cpu0_STLB AVERAGE MISS LATENCY: 711 cycles
cpu0->cpu0_L2C TOTAL        ACCESS:     586718 HIT:     113409 MISS:     473309 MSHR_MERGE:          0
cpu0->cpu0_L2C LOAD         ACCESS:     259074 HIT:      12348 MISS:     246726 MSHR_MERGE:          0
cpu0->cpu0_L2C RFO          ACCESS:     157536 HIT:       8670 MISS:     148866 MSHR_MERGE:          0
cpu0->cpu0_L2C PREFETCH     ACCESS:          0 HIT:          0 MISS:          0 MSHR_MERGE:          0
cpu0->cpu0_L2C WRITE        ACCESS:     159473 HIT:      91209 MISS:      68264 MSHR_MERGE:          0
cpu0->cpu0_L2C TRANSLATION  ACCESS:      10635 HIT:       1182 MISS:       9453 MSHR_MERGE:          0
cpu0->cpu0_L2C PREFETCH REQUESTED:          0 ISSUED:          0 USEFUL:          0 USELESS:          0
cpu0->cpu0_L2C AVERAGE MISS LATENCY: 178.1 cycles
cpu0->cpu0_L1I TOTAL        ACCESS:    2840070 HIT:    2840062 MISS:          8 MSHR_MERGE:          1
cpu0->cpu0_L1I LOAD         ACCESS:    2840070 HIT:    2840062 MISS:          8 MSHR_MERGE:          1
cpu0->cpu0_L1I RFO          ACCESS:          0 HIT:          0 MISS:          0 MSHR_MERGE:          0
cpu0->cpu0_L1I PREFETCH     ACCESS:          0 HIT:          0 MISS:          0 MSHR_MERGE:          0
cpu0->cpu0_L1I WRITE        ACCESS:          0 HIT:          0 MISS:          0 MSHR_MERGE:          0
cpu0->cpu0_L1I TRANSLATION  ACCESS:          0 HIT:          0 MISS:          0 MSHR_MERGE:          0
cpu0->cpu0_L1I PREFETCH REQUESTED:          0 ISSUED:          0 USEFUL:          0 USELESS:          0
cpu0->cpu0_L1I AVERAGE MISS LATENCY: 434 cycles
cpu0->cpu0_L1D TOTAL        ACCESS:    8278505 HIT:    7475301 MISS:     803204 MSHR_MERGE:     375803
cpu0->cpu0_L1D LOAD         ACCESS:    3694672 HIT:    3433123 MISS:     261549 MSHR_MERGE:       2477
cpu0->cpu0_L1D RFO          ACCESS:          0 HIT:          0 MISS:          0 MSHR_MERGE:          0
cpu0->cpu0_L1D PREFETCH     ACCESS:          0 HIT:          0 MISS:          0 MSHR_MERGE:          0
cpu0->cpu0_L1D WRITE        ACCESS:    4573152 HIT:    4042132 MISS:     531020 MSHR_MERGE:     373326
cpu0->cpu0_L1D TRANSLATION  ACCESS:      10681 HIT:         46 MISS:      10635 MSHR_MERGE:          0
cpu0->cpu0_L1D PREFETCH REQUESTED:          0 ISSUED:          0 USEFUL:          0 USELESS:          0
cpu0->cpu0_L1D AVERAGE MISS LATENCY: 205.6 cycles
cpu0->cpu0_ITLB TOTAL        ACCESS:    2271478 HIT:    2271478 MISS:          0 MSHR_MERGE:          0
cpu0->cpu0_ITLB LOAD         ACCESS:    2271478 HIT:    2271478 MISS:          0 MSHR_MERGE:          0
cpu0->cpu0_ITLB RFO          ACCESS:          0 HIT:          0 MISS:          0 MSHR_MERGE:          0
cpu0->cpu0_ITLB PREFETCH     ACCESS:          0 HIT:          0 MISS:          0 MSHR_MERGE:          0
cpu0->cpu0_ITLB WRITE        ACCESS:          0 HIT:          0 MISS:          0 MSHR_MERGE:          0
cpu0->cpu0_ITLB TRANSLATION  ACCESS:          0 HIT:          0 MISS:          0 MSHR_MERGE:          0
cpu0->cpu0_ITLB PREFETCH REQUESTED:          0 ISSUED:          0 USEFUL:          0 USELESS:          0
cpu0->cpu0_ITLB AVERAGE MISS LATENCY: - cycles
cpu0->cpu0_DTLB TOTAL        ACCESS:    7583342 HIT:    7535264 MISS:      48078 MSHR_MERGE:       5114
cpu0->cpu0_DTLB LOAD         ACCESS:    7583342 HIT:    7535264 MISS:      48078 MSHR_MERGE:       5114
cpu0->cpu0_DTLB RFO          ACCESS:          0 HIT:          0 MISS:          0 MSHR_MERGE:          0
cpu0->cpu0_DTLB PREFETCH     ACCESS:          0 HIT:          0 MISS:          0 MSHR_MERGE:          0
cpu0->cpu0_DTLB WRITE        ACCESS:          0 HIT:          0 MISS:          0 MSHR_MERGE:          0
cpu0->cpu0_DTLB TRANSLATION  ACCESS:          0 HIT:          0 MISS:          0 MSHR_MERGE:          0
cpu0->cpu0_DTLB PREFETCH REQUESTED:          0 ISSUED:          0 USEFUL:          0 USELESS:          0
cpu0->cpu0_DTLB AVERAGE MISS LATENCY: 93.37 cycles
cpu0->LLC TOTAL        ACCESS:     553759 HIT:     170290 MISS:     383469 MSHR_MERGE:          0
cpu0->LLC LOAD         ACCESS:     246726 HIT:      54304 MISS:     192422 MSHR_MERGE:          0
cpu0->LLC RFO          ACCESS:     148866 HIT:         25 MISS:     148841 MSHR_MERGE:          0
cpu0->LLC PREFETCH     ACCESS:          0 HIT:          0 MISS:          0 MSHR_MERGE:          0
cpu0->LLC WRITE        ACCESS:     148714 HIT:     112661 MISS:      36053 MSHR_MERGE:          0
cpu0->LLC TRANSLATION  ACCESS:       9453 HIT:       3300 MISS:       6153 MSHR_MERGE:          0
cpu0->LLC PREFETCH REQUESTED:          0 ISSUED:          0 USEFUL:          0 USELESS:          0
cpu0->LLC AVERAGE MISS LATENCY: 203.2 cycles

DRAM Statistics

Channel 0 RQ ROW_BUFFER_HIT:          1
  ROW_BUFFER_MISS:     347414
  AVG DBUS CONGESTED CYCLE: 11.48
Channel 0 WQ ROW_BUFFER_HIT:      53264
  ROW_BUFFER_MISS:      94861
  FULL:          0
Channel 0 REFRESHES ISSUED:       2359
