[VMEM] WARNING: physical memory size is smaller than virtual memory size.

*** ChampSim Multicore Out-of-Order Simulator ***
Warmup Instructions: 5000000
Simulation Instructions: 25000000
Number of CPUs: 1
Page size: 4096

Off-chip DRAM Size: 16 GiB Channels: 1 Width: 64-bit Data Rate: 3205 MT/s
Warmup finished CPU 0 instructions: 5000001 cycles: 2095060 cumulative IPC: 2.387 (Simulation time: 00 hr 00 min 27 sec)
Warmup complete CPU 0 instructions: 5000001 cycles: 2095060 cumulative IPC: 2.387 (Simulation time: 00 hr 00 min 27 sec)
Heartbeat CPU 0 instructions: 10000003 cycles: 23485820 heartbeat IPC: 0.4258 cumulative IPC: 0.2337 (Simulation time: 00 hr 03 min 22 sec)
Heartbeat CPU 0 instructions: 20000007 cycles: 65241036 heartbeat IPC: 0.2395 cumulative IPC: 0.2375 (Simulation time: 00 hr 09 min 06 sec)
Simulation finished CPU 0 instructions: 25000001 cycles: 104533666 cumulative IPC: 0.2392 (Simulation time: 00 hr 13 min 24 sec)
Simulation complete CPU 0 instructions: 25000001 cycles: 104533666 cumulative IPC: 0.2392 (Simulation time: 00 hr 13 min 24 sec)

ChampSim completed all CPUs

=== Simulation ===
CPU 0 runs ../../hw2/traces/605.mcf_s-1536B.champsimtrace.xz

Region of Interest Statistics

CPU 0 cumulative IPC: 0.2392 instructions: 25000001 cycles: 104533666
CPU 0 Branch Prediction Accuracy: 99.98% MPKI: 0.03768 Average ROB Occupancy at Mispredict: 190.5
Branch type MPKI
BRANCH_DIRECT_JUMP: 0
BRANCH_INDIRECT: 0
BRANCH_CONDITIONAL: 0.03768
BRANCH_DIRECT_CALL: 0
BRANCH_INDIRECT_CALL: 0
BRANCH_RETURN: 0

cpu0->cpu0_STLB TOTAL        ACCESS:     691058 HIT:     130055 MISS:     561003 MSHR_MERGE:          0
cpu0->cpu0_STLB LOAD         ACCESS:     691058 HIT:     130055 MISS:     561003 MSHR_MERGE:          0
cpu0->cpu0_STLB RFO          ACCESS:          0 HIT:          0 MISS:          0 MSHR_MERGE:          0
cpu0->cpu0_STLB PREFETCH     ACCESS:          0 HIT:          0 MISS:          0 MSHR_MERGE:          0
cpu0->cpu0_STLB WRITE        ACCESS:          0 HIT:          0 MISS:          0 MSHR_MERGE:          0
cpu0->cpu0_STLB TRANSLATION  ACCESS:          0 HIT:          0 MISS:          0 MSHR_MERGE:          0
cpu0->cpu0_STLB PREFETCH REQUESTED:          0 ISSUED:          0 USEFUL:          0 USELESS:          0
cpu0->cpu0_STLB AVERAGE MISS LATENCY: 90.87 cycles
cpu0->cpu0_L2C TOTAL        ACCESS:    2902048 HIT:     661974 MISS:    2240074 MSHR_MERGE:          0
cpu0->cpu0_L2C LOAD         ACCESS:    1154655 HIT:     361759 MISS:     792896 MSHR_MERGE:          0
cpu0->cpu0_L2C RFO          ACCESS:      71352 HIT:       2060 MISS:      69292 MSHR_MERGE:          0
cpu0->cpu0_L2C PREFETCH     ACCESS:          0 HIT:          0 MISS:          0 MSHR_MERGE:          0
cpu0->cpu0_L2C WRITE        ACCESS:     556354 HIT:     257557 MISS:     298797 MSHR_MERGE:          0
cpu0->cpu0_L2C TRANSLATION  ACCESS:    1119687 HIT:      40598 MISS:    1079089 MSHR_MERGE:          0
cpu0->cpu0_L2C PREFETCH REQUESTED:          0 ISSUED:          0 USEFUL:          0 USELESS:          0
cpu0->cpu0_L2C AVERAGE MISS LATENCY: 82.68 cycles
cpu0->cpu0_L1I TOTAL        ACCESS:    5565507 HIT:    5565507 MISS:          0 MSHR_MERGE:          0
cpu0->cpu0_L1I LOAD         ACCESS:    5565507 HIT:    5565507 MISS:          0 MSHR_MERGE:          0
cpu0->cpu0_L1I RFO          ACCESS:          0 HIT:          0 MISS:          0 MSHR_MERGE:          0
cpu0->cpu0_L1I PREFETCH     ACCESS:          0 HIT:          0 MISS:          0 MSHR_MERGE:          0
cpu0->cpu0_L1I WRITE        ACCESS:          0 HIT:          0 MISS:          0 MSHR_MERGE:          0
cpu0->cpu0_L1I TRANSLATION  ACCESS:          0 HIT:          0 MISS:          0 MSHR_MERGE:          0
cpu0->cpu0_L1I PREFETCH REQUESTED:          0 ISSUED:          0 USEFUL:          0 USELESS:          0
cpu0->cpu0_L1I AVERAGE MISS LATENCY: - cycles
cpu0->cpu0_L1D TOTAL        ACCESS:    7304813 HIT:    4112931 MISS:    3191882 MSHR_MERGE:     846182
cpu0->cpu0_L1D LOAD         ACCESS:    4990174 HIT:    2999084 MISS:    1991090 MSHR_MERGE:     836435
cpu0->cpu0_L1D RFO          ACCESS:          0 HIT:          0 MISS:          0 MSHR_MERGE:          0
cpu0->cpu0_L1D PREFETCH     ACCESS:          0 HIT:          0 MISS:          0 MSHR_MERGE:          0
cpu0->cpu0_L1D WRITE        ACCESS:    1108562 HIT:    1037170 MISS:      71392 MSHR_MERGE:         34
cpu0->cpu0_L1D TRANSLATION  ACCESS:    1206077 HIT:      76677 MISS:    1129400 MSHR_MERGE:       9713
cpu0->cpu0_L1D PREFETCH REQUESTED:          0 ISSUED:          0 USEFUL:          0 USELESS:          0
cpu0->cpu0_L1D AVERAGE MISS LATENCY: 87.39 cycles
cpu0->cpu0_ITLB TOTAL        ACCESS:    4989490 HIT:    4989490 MISS:          0 MSHR_MERGE:          0
cpu0->cpu0_ITLB LOAD         ACCESS:    4989490 HIT:    4989490 MISS:          0 MSHR_MERGE:          0
cpu0->cpu0_ITLB RFO          ACCESS:          0 HIT:          0 MISS:          0 MSHR_MERGE:          0
cpu0->cpu0_ITLB PREFETCH     ACCESS:          0 HIT:          0 MISS:          0 MSHR_MERGE:          0
cpu0->cpu0_ITLB WRITE        ACCESS:          0 HIT:          0 MISS:          0 MSHR_MERGE:          0
cpu0->cpu0_ITLB TRANSLATION  ACCESS:          0 HIT:          0 MISS:          0 MSHR_MERGE:          0
cpu0->cpu0_ITLB PREFETCH REQUESTED:          0 ISSUED:          0 USEFUL:          0 USELESS:          0
cpu0->cpu0_ITLB AVERAGE MISS LATENCY: - cycles
cpu0->cpu0_DTLB TOTAL        ACCESS:    6052198 HIT:    4354795 MISS:    1697403 MSHR_MERGE:    1006345
cpu0->cpu0_DTLB LOAD         ACCESS:    6052198 HIT:    4354795 MISS:    1697403 MSHR_MERGE:    1006345
cpu0->cpu0_DTLB RFO          ACCESS:          0 HIT:          0 MISS:          0 MSHR_MERGE:          0
cpu0->cpu0_DTLB PREFETCH     ACCESS:          0 HIT:          0 MISS:          0 MSHR_MERGE:          0
cpu0->cpu0_DTLB WRITE        ACCESS:          0 HIT:          0 MISS:          0 MSHR_MERGE:          0
cpu0->cpu0_DTLB TRANSLATION  ACCESS:          0 HIT:          0 MISS:          0 MSHR_MERGE:          0
cpu0->cpu0_DTLB PREFETCH REQUESTED:          0 ISSUED:          0 USEFUL:          0 USELESS:          0
cpu0->cpu0_DTLB AVERAGE MISS LATENCY: 79.58 cycles
cpu0->LLC TOTAL        ACCESS:    2495101 HIT:    1732124 MISS:     762977 MSHR_MERGE:          0
cpu0->LLC LOAD         ACCESS:     792896 HIT:     157920 MISS:     634976 MSHR_MERGE:          0
cpu0->LLC RFO          ACCESS:      69292 HIT:      69283 MISS:          9 MSHR_MERGE:          0
cpu0->LLC PREFETCH     ACCESS:          0 HIT:          0 MISS:          0 MSHR_MERGE:          0
cpu0->LLC WRITE        ACCESS:     553824 HIT:     476587 MISS:      77237 MSHR_MERGE:          0
cpu0->LLC TRANSLATION  ACCESS:    1079089 HIT:    1028334 MISS:      50755 MSHR_MERGE:          0
cpu0->LLC PREFETCH REQUESTED:          0 ISSUED:          0 USEFUL:          0 USELESS:          0
cpu0->LLC AVERAGE MISS LATENCY: 203 cycles

DRAM Statistics

Channel 0 RQ ROW_BUFFER_HIT:        201
  ROW_BUFFER_MISS:     685539
  AVG DBUS CONGESTED CYCLE: 5.917
Channel 0 WQ ROW_BUFFER_HIT:     181423
  ROW_BUFFER_MISS:     372808
  FULL:          0
Channel 0 REFRESHES ISSUED:       8711
