[VMEM] WARNING: physical memory size is smaller than virtual memory size.

*** ChampSim Multicore Out-of-Order Simulator ***
Warmup Instructions: 5000000
Simulation Instructions: 25000000
Number of CPUs: 1
Page size: 4096

Off-chip DRAM Size: 16 GiB Channels: 1 Width: 64-bit Data Rate: 3205 MT/s
Warmup finished CPU 0 instructions: 5000000 cycles: 1495356 cumulative IPC: 3.344 (Simulation time: 00 hr 00 min 25 sec)
Warmup complete CPU 0 instructions: 5000000 cycles: 1495356 cumulative IPC: 3.344 (Simulation time: 00 hr 00 min 25 sec)
Heartbeat CPU 0 instructions: 10000002 cycles: 4538259 heartbeat IPC: 2.203 cumulative IPC: 1.643 (Simulation time: 00 hr 00 min 58 sec)
Heartbeat CPU 0 instructions: 20000002 cycles: 10953719 heartbeat IPC: 1.559 cumulative IPC: 1.586 (Simulation time: 00 hr 02 min 09 sec)
Simulation finished CPU 0 instructions: 25000001 cycles: 15888806 cumulative IPC: 1.573 (Simulation time: 00 hr 03 min 19 sec)
Simulation complete CPU 0 instructions: 25000001 cycles: 15888806 cumulative IPC: 1.573 (Simulation time: 00 hr 03 min 19 sec)

ChampSim completed all CPUs

=== Simulation ===
CPU 0 runs ../../hw2/traces/607.cactuBSSN_s-2421B.champsimtrace.xz

Region of Interest Statistics

CPU 0 cumulative IPC: 1.573 instructions: 25000001 cycles: 15888806
CPU 0 Branch Prediction Accuracy: 91.63% MPKI: 0.7521 Average ROB Occupancy at Mispredict: 334.1
Branch type MPKI
BRANCH_DIRECT_JUMP: 0.00132
BRANCH_INDIRECT: 8e-05
BRANCH_CONDITIONAL: 0.3843
BRANCH_DIRECT_CALL: 0.00156
BRANCH_INDIRECT_CALL: 0
BRANCH_RETURN: 0.3649

cpu0->cpu0_STLB TOTAL        ACCESS:     962180 HIT:     961153 MISS:       1027 MSHR_MERGE:          0
cpu0->cpu0_STLB LOAD         ACCESS:     962180 HIT:     961153 MISS:       1027 MSHR_MERGE:          0
cpu0->cpu0_STLB RFO          ACCESS:          0 HIT:          0 MISS:          0 MSHR_MERGE:          0
cpu0->cpu0_STLB PREFETCH     ACCESS:          0 HIT:          0 MISS:          0 MSHR_MERGE:          0
cpu0->cpu0_STLB WRITE        ACCESS:          0 HIT:          0 MISS:          0 MSHR_MERGE:          0
cpu0->cpu0_STLB TRANSLATION  ACCESS:          0 HIT:          0 MISS:          0 MSHR_MERGE:          0
cpu0->cpu0_STLB PREFETCH REQUESTED:          0 ISSUED:          0 USEFUL:          0 USELESS:          0
cpu0->cpu0_STLB AVERAGE MISS LATENCY: 816.5 cycles
cpu0->cpu0_L2C TOTAL        ACCESS:    2660429 HIT:    1853143 MISS:     807286 MSHR_MERGE:          0
cpu0->cpu0_L2C LOAD         ACCESS:    2335210 HIT:    1620950 MISS:     714260 MSHR_MERGE:          0
cpu0->cpu0_L2C RFO          ACCESS:     153213 HIT:     103748 MISS:      49465 MSHR_MERGE:          0
cpu0->cpu0_L2C PREFETCH     ACCESS:          0 HIT:          0 MISS:          0 MSHR_MERGE:          0
cpu0->cpu0_L2C WRITE        ACCESS:     169452 HIT:     128441 MISS:      41011 MSHR_MERGE:          0
cpu0->cpu0_L2C TRANSLATION  ACCESS:       2554 HIT:          4 MISS:       2550 MSHR_MERGE:          0
cpu0->cpu0_L2C PREFETCH REQUESTED:          0 ISSUED:          0 USEFUL:          0 USELESS:          0
cpu0->cpu0_L2C AVERAGE MISS LATENCY: 32.63 cycles
cpu0->cpu0_L1I TOTAL        ACCESS:    5613595 HIT:    4348011 MISS:    1265584 MSHR_MERGE:     615477
cpu0->cpu0_L1I LOAD         ACCESS:    5613595 HIT:    4348011 MISS:    1265584 MSHR_MERGE:     615477
cpu0->cpu0_L1I RFO          ACCESS:          0 HIT:          0 MISS:          0 MSHR_MERGE:          0
cpu0->cpu0_L1I PREFETCH     ACCESS:          0 HIT:          0 MISS:          0 MSHR_MERGE:          0
cpu0->cpu0_L1I WRITE        ACCESS:          0 HIT:          0 MISS:          0 MSHR_MERGE:          0
cpu0->cpu0_L1I TRANSLATION  ACCESS:          0 HIT:          0 MISS:          0 MSHR_MERGE:          0
cpu0->cpu0_L1I PREFETCH REQUESTED:          0 ISSUED:          0 USEFUL:          0 USELESS:          0
cpu0->cpu0_L1I AVERAGE MISS LATENCY: 7.523 cycles
cpu0->cpu0_L1D TOTAL        ACCESS:    9683792 HIT:    7637639 MISS:    2046153 MSHR_MERGE:     205255
cpu0->cpu0_L1D LOAD         ACCESS:    7671921 HIT:    5799273 MISS:    1872648 MSHR_MERGE:     187524
cpu0->cpu0_L1D RFO          ACCESS:          0 HIT:          0 MISS:          0 MSHR_MERGE:          0
cpu0->cpu0_L1D PREFETCH     ACCESS:          0 HIT:          0 MISS:          0 MSHR_MERGE:          0
cpu0->cpu0_L1D WRITE        ACCESS:    2009299 HIT:    1838351 MISS:     170948 MSHR_MERGE:      17728
cpu0->cpu0_L1D TRANSLATION  ACCESS:       2572 HIT:         15 MISS:       2557 MSHR_MERGE:          3
cpu0->cpu0_L1D PREFETCH REQUESTED:          0 ISSUED:          0 USEFUL:          0 USELESS:          0
cpu0->cpu0_L1D AVERAGE MISS LATENCY: 23.45 cycles
cpu0->cpu0_ITLB TOTAL        ACCESS:    4478942 HIT:    4478927 MISS:         15 MSHR_MERGE:          5
cpu0->cpu0_ITLB LOAD         ACCESS:    4478942 HIT:    4478927 MISS:         15 MSHR_MERGE:          5
cpu0->cpu0_ITLB RFO          ACCESS:          0 HIT:          0 MISS:          0 MSHR_MERGE:          0
cpu0->cpu0_ITLB PREFETCH     ACCESS:          0 HIT:          0 MISS:          0 MSHR_MERGE:          0
cpu0->cpu0_ITLB WRITE        ACCESS:          0 HIT:          0 MISS:          0 MSHR_MERGE:          0
cpu0->cpu0_ITLB TRANSLATION  ACCESS:          0 HIT:          0 MISS:          0 MSHR_MERGE:          0
cpu0->cpu0_ITLB PREFETCH REQUESTED:          0 ISSUED:          0 USEFUL:          0 USELESS:          0
cpu0->cpu0_ITLB AVERAGE MISS LATENCY: 809.1 cycles
cpu0->cpu0_DTLB TOTAL        ACCESS:    9153111 HIT:    8090486 MISS:    1062625 MSHR_MERGE:     100456
cpu0->cpu0_DTLB LOAD         ACCESS:    9153111 HIT:    8090486 MISS:    1062625 MSHR_MERGE:     100456
cpu0->cpu0_DTLB RFO          ACCESS:          0 HIT:          0 MISS:          0 MSHR_MERGE:          0
cpu0->cpu0_DTLB PREFETCH     ACCESS:          0 HIT:          0 MISS:          0 MSHR_MERGE:          0
cpu0->cpu0_DTLB WRITE        ACCESS:          0 HIT:          0 MISS:          0 MSHR_MERGE:          0
cpu0->cpu0_DTLB TRANSLATION  ACCESS:          0 HIT:          0 MISS:          0 MSHR_MERGE:          0
cpu0->cpu0_DTLB PREFETCH REQUESTED:          0 ISSUED:          0 USEFUL:          0 USELESS:          0
cpu0->cpu0_DTLB AVERAGE MISS LATENCY: 5.908 cycles
cpu0->LLC TOTAL        ACCESS:     815230 HIT:     747713 MISS:      67517 MSHR_MERGE:          0
cpu0->LLC LOAD         ACCESS:     714260 HIT:     663169 MISS:      51091 MSHR_MERGE:          0
cpu0->LLC RFO          ACCESS:      49384 HIT:      34644 MISS:      14740 MSHR_MERGE:          0
cpu0->LLC PREFETCH     ACCESS:          0 HIT:          0 MISS:          0 MSHR_MERGE:          0
cpu0->LLC WRITE        ACCESS:      49036 HIT:      48983 MISS:         53 MSHR_MERGE:          0
cpu0->LLC TRANSLATION  ACCESS:       2550 HIT:        917 MISS:       1633 MSHR_MERGE:          0
cpu0->LLC PREFETCH REQUESTED:          0 ISSUED:          0 USEFUL:          0 USELESS:          0
cpu0->LLC AVERAGE MISS LATENCY: 216.3 cycles

DRAM Statistics

Channel 0 RQ ROW_BUFFER_HIT:         50
  ROW_BUFFER_MISS:      67414
  AVG DBUS CONGESTED CYCLE: 10.31
Channel 0 WQ ROW_BUFFER_HIT:        729
  ROW_BUFFER_MISS:      10707
  FULL:          0
Channel 0 REFRESHES ISSUED:       1324
