[VMEM] WARNING: physical memory size is smaller than virtual memory size.

*** ChampSim Multicore Out-of-Order Simulator ***
Warmup Instructions: 5000000
Simulation Instructions: 25000000
Number of CPUs: 1
Page size: 4096

Off-chip DRAM Size: 16 GiB Channels: 1 Width: 64-bit Data Rate: 3205 MT/s
Warmup finished CPU 0 instructions: 5000001 cycles: 1785108 cumulative IPC: 2.801 (Simulation time: 00 hr 00 min 24 sec)
Warmup complete CPU 0 instructions: 5000001 cycles: 1785108 cumulative IPC: 2.801 (Simulation time: 00 hr 00 min 24 sec)
Heartbeat CPU 0 instructions: 10000001 cycles: 12828833 heartbeat IPC: 0.7795 cumulative IPC: 0.4527 (Simulation time: 00 hr 02 min 08 sec)
Heartbeat CPU 0 instructions: 20000001 cycles: 34481376 heartbeat IPC: 0.4618 cumulative IPC: 0.4588 (Simulation time: 00 hr 05 min 41 sec)
Heartbeat CPU 0 instructions: 30000003 cycles: 55756991 heartbeat IPC: 0.47 cumulative IPC: 0.4632 (Simulation time: 00 hr 08 min 56 sec)
Simulation finished CPU 0 instructions: 25000002 cycles: 53971883 cumulative IPC: 0.4632 (Simulation time: 00 hr 08 min 56 sec)
Simulation complete CPU 0 instructions: 25000002 cycles: 53971883 cumulative IPC: 0.4632 (Simulation time: 00 hr 08 min 56 sec)

ChampSim completed all CPUs

=== Simulation ===
CPU 0 runs ../../hw2/traces/619.lbm_s-2676B.champsimtrace.xz

Region of Interest Statistics

CPU 0 cumulative IPC: 0.4632 instructions: 25000002 cycles: 53971883
CPU 0 Branch Prediction Accuracy: 95.63% MPKI: 0.7376 Average ROB Occupancy at Mispredict: 212.2
Branch type MPKI
BRANCH_DIRECT_JUMP: 0
BRANCH_INDIRECT: 0
BRANCH_CONDITIONAL: 0.7376
BRANCH_DIRECT_CALL: 0
BRANCH_INDIRECT_CALL: 0
BRANCH_RETURN: 0

cpu0->cpu0_STLB TOTAL        ACCESS:      31491 HIT:      14402 MISS:      17089 MSHR_MERGE:          0
cpu0->cpu0_STLB LOAD         ACCESS:      31491 HIT:      14402 MISS:      17089 MSHR_MERGE:          0
cpu0->cpu0_STLB RFO          ACCESS:          0 HIT:          0 MISS:          0 MSHR_MERGE:          0
cpu0->cpu0_STLB PREFETCH     ACCESS:          0 HIT:          0 MISS:          0 MSHR_MERGE:          0
cpu0->cpu0_STLB WRITE        ACCESS:          0 HIT:          0 MISS:          0 MSHR_MERGE:          0
cpu0->cpu0_STLB TRANSLATION  ACCESS:          0 HIT:          0 MISS:          0 MSHR_MERGE:          0
cpu0->cpu0_STLB PREFETCH REQUESTED:          0 ISSUED:          0 USEFUL:          0 USELESS:          0
cpu0->cpu0_STLB AVERAGE MISS LATENCY: 932 cycles
cpu0->cpu0_L2C TOTAL        ACCESS:    3375731 HIT:     927752 MISS:    2447979 MSHR_MERGE:          0
cpu0->cpu0_L2C LOAD         ACCESS:     273390 HIT:          1 MISS:     273389 MSHR_MERGE:          0
cpu0->cpu0_L2C RFO          ACCESS:    1541530 HIT:     286770 MISS:    1254760 MSHR_MERGE:          0
cpu0->cpu0_L2C PREFETCH     ACCESS:          0 HIT:          0 MISS:          0 MSHR_MERGE:          0
cpu0->cpu0_L2C WRITE        ACCESS:    1541567 HIT:     640981 MISS:     900586 MSHR_MERGE:          0
cpu0->cpu0_L2C TRANSLATION  ACCESS:      19244 HIT:          0 MISS:      19244 MSHR_MERGE:          0
cpu0->cpu0_L2C PREFETCH REQUESTED:          0 ISSUED:          0 USEFUL:          0 USELESS:          0
cpu0->cpu0_L2C AVERAGE MISS LATENCY: 228.1 cycles
cpu0->cpu0_L1I TOTAL        ACCESS:    3962098 HIT:    3962098 MISS:          0 MSHR_MERGE:          0
cpu0->cpu0_L1I LOAD         ACCESS:    3962098 HIT:    3962098 MISS:          0 MSHR_MERGE:          0
cpu0->cpu0_L1I RFO          ACCESS:          0 HIT:          0 MISS:          0 MSHR_MERGE:          0
cpu0->cpu0_L1I PREFETCH     ACCESS:          0 HIT:          0 MISS:          0 MSHR_MERGE:          0
cpu0->cpu0_L1I WRITE        ACCESS:          0 HIT:          0 MISS:          0 MSHR_MERGE:          0
cpu0->cpu0_L1I TRANSLATION  ACCESS:          0 HIT:          0 MISS:          0 MSHR_MERGE:          0
cpu0->cpu0_L1I PREFETCH REQUESTED:          0 ISSUED:          0 USEFUL:          0 USELESS:          0
cpu0->cpu0_L1I AVERAGE MISS LATENCY: - cycles
cpu0->cpu0_L1D TOTAL        ACCESS:    6074377 HIT:    3809093 MISS:    2265284 MSHR_MERGE:     431087
cpu0->cpu0_L1D LOAD         ACCESS:    1577181 HIT:     946153 MISS:     631028 MSHR_MERGE:     357638
cpu0->cpu0_L1D RFO          ACCESS:          0 HIT:          0 MISS:          0 MSHR_MERGE:          0
cpu0->cpu0_L1D PREFETCH     ACCESS:          0 HIT:          0 MISS:          0 MSHR_MERGE:          0
cpu0->cpu0_L1D WRITE        ACCESS:    4463000 HIT:    2847988 MISS:    1615012 MSHR_MERGE:      73449
cpu0->cpu0_L1D TRANSLATION  ACCESS:      34196 HIT:      14952 MISS:      19244 MSHR_MERGE:          0
cpu0->cpu0_L1D PREFETCH REQUESTED:          0 ISSUED:          0 USEFUL:          0 USELESS:          0
cpu0->cpu0_L1D AVERAGE MISS LATENCY: 312 cycles
cpu0->cpu0_ITLB TOTAL        ACCESS:    2942406 HIT:    2942406 MISS:          0 MSHR_MERGE:          0
cpu0->cpu0_ITLB LOAD         ACCESS:    2942406 HIT:    2942406 MISS:          0 MSHR_MERGE:          0
cpu0->cpu0_ITLB RFO          ACCESS:          0 HIT:          0 MISS:          0 MSHR_MERGE:          0
cpu0->cpu0_ITLB PREFETCH     ACCESS:          0 HIT:          0 MISS:          0 MSHR_MERGE:          0
cpu0->cpu0_ITLB WRITE        ACCESS:          0 HIT:          0 MISS:          0 MSHR_MERGE:          0
cpu0->cpu0_ITLB TRANSLATION  ACCESS:          0 HIT:          0 MISS:          0 MSHR_MERGE:          0
cpu0->cpu0_ITLB PREFETCH REQUESTED:          0 ISSUED:          0 USEFUL:          0 USELESS:          0
cpu0->cpu0_ITLB AVERAGE MISS LATENCY: - cycles
cpu0->cpu0_DTLB TOTAL        ACCESS:    5690508 HIT:    5596130 MISS:      94378 MSHR_MERGE:      62887
cpu0->cpu0_DTLB LOAD         ACCESS:    5690508 HIT:    5596130 MISS:      94378 MSHR_MERGE:      62887
cpu0->cpu0_DTLB RFO          ACCESS:          0 HIT:          0 MISS:          0 MSHR_MERGE:          0
cpu0->cpu0_DTLB PREFETCH     ACCESS:          0 HIT:          0 MISS:          0 MSHR_MERGE:          0
cpu0->cpu0_DTLB WRITE        ACCESS:          0 HIT:          0 MISS:          0 MSHR_MERGE:          0
cpu0->cpu0_DTLB TRANSLATION  ACCESS:          0 HIT:          0 MISS:          0 MSHR_MERGE:          0
cpu0->cpu0_DTLB PREFETCH REQUESTED:          0 ISSUED:          0 USEFUL:          0 USELESS:          0
cpu0->cpu0_DTLB AVERAGE MISS LATENCY: 511.3 cycles
cpu0->LLC TOTAL        ACCESS:    2802518 HIT:    1593792 MISS:    1208726 MSHR_MERGE:          0
cpu0->LLC LOAD         ACCESS:     273389 HIT:         25 MISS:     273364 MSHR_MERGE:          0
cpu0->LLC RFO          ACCESS:    1254758 HIT:     434743 MISS:     820015 MSHR_MERGE:          0
cpu0->LLC PREFETCH     ACCESS:          0 HIT:          0 MISS:          0 MSHR_MERGE:          0
cpu0->LLC WRITE        ACCESS:    1255127 HIT:    1159024 MISS:      96103 MSHR_MERGE:          0
cpu0->LLC TRANSLATION  ACCESS:      19244 HIT:          0 MISS:      19244 MSHR_MERGE:          0
cpu0->LLC PREFETCH REQUESTED:          0 ISSUED:          0 USEFUL:          0 USELESS:          0
cpu0->LLC AVERAGE MISS LATENCY: 439.4 cycles

DRAM Statistics

Channel 0 RQ ROW_BUFFER_HIT:      59637
  ROW_BUFFER_MISS:    1052986
  AVG DBUS CONGESTED CYCLE: 7.272
Channel 0 WQ ROW_BUFFER_HIT:     131561
  ROW_BUFFER_MISS:     711115
  FULL:          0
Channel 0 REFRESHES ISSUED:       4498
