[VMEM] WARNING: physical memory size is smaller than virtual memory size.

*** ChampSim Multicore Out-of-Order Simulator ***
Warmup Instructions: 5000000
Simulation Instructions: 25000000
Number of CPUs: 1
Page size: 4096

Off-chip DRAM Size: 16 GiB Channels: 1 Width: 64-bit Data Rate: 3205 MT/s
Warmup finished CPU 0 instructions: 5000003 cycles: 3494477 cumulative IPC: 1.431 (Simulation time: 00 hr 00 min 34 sec)
Warmup complete CPU 0 instructions: 5000003 cycles: 3494477 cumulative IPC: 1.431 (Simulation time: 00 hr 00 min 34 sec)
Heartbeat CPU 0 instructions: 10000004 cycles: 21809486 heartbeat IPC: 0.4585 cumulative IPC: 0.273 (Simulation time: 00 hr 02 min 08 sec)
Heartbeat CPU 0 instructions: 20000007 cycles: 59216297 heartbeat IPC: 0.2673 cumulative IPC: 0.2692 (Simulation time: 00 hr 05 min 29 sec)
Simulation finished CPU 0 instructions: 25000001 cycles: 90797133 cumulative IPC: 0.2753 (Simulation time: 00 hr 08 min 26 sec)
Simulation complete CPU 0 instructions: 25000001 cycles: 90797133 cumulative IPC: 0.2753 (Simulation time: 00 hr 08 min 26 sec)

ChampSim completed all CPUs

=== Simulation ===
CPU 0 runs ../../hw2/traces/620.omnetpp_s-141B.champsimtrace.xz

Region of Interest Statistics

CPU 0 cumulative IPC: 0.2753 instructions: 25000001 cycles: 90797133
CPU 0 Branch Prediction Accuracy: 92.89% MPKI: 14.98 Average ROB Occupancy at Mispredict: 42.8
Branch type MPKI
BRANCH_DIRECT_JUMP: 0.8414
BRANCH_INDIRECT: 0.3648
BRANCH_CONDITIONAL: 12.48
BRANCH_DIRECT_CALL: 0.00052
BRANCH_INDIRECT_CALL: 0.8609
BRANCH_RETURN: 0.4358

cpu0->cpu0_STLB TOTAL        ACCESS:     562894 HIT:     442421 MISS:     120473 MSHR_MERGE:          0
cpu0->cpu0_STLB LOAD         ACCESS:     562894 HIT:     442421 MISS:     120473 MSHR_MERGE:          0
cpu0->cpu0_STLB RFO          ACCESS:          0 HIT:          0 MISS:          0 MSHR_MERGE:          0
cpu0->cpu0_STLB PREFETCH     ACCESS:          0 HIT:          0 MISS:          0 MSHR_MERGE:          0
cpu0->cpu0_STLB WRITE        ACCESS:          0 HIT:          0 MISS:          0 MSHR_MERGE:          0
cpu0->cpu0_STLB TRANSLATION  ACCESS:          0 HIT:          0 MISS:          0 MSHR_MERGE:          0
cpu0->cpu0_STLB PREFETCH REQUESTED:          0 ISSUED:          0 USEFUL:          0 USELESS:          0
cpu0->cpu0_STLB AVERAGE MISS LATENCY: 364.6 cycles
cpu0->cpu0_L2C TOTAL        ACCESS:    1017901 HIT:     372752 MISS:     645149 MSHR_MERGE:          0
cpu0->cpu0_L2C LOAD         ACCESS:     451641 HIT:     130838 MISS:     320803 MSHR_MERGE:          0
cpu0->cpu0_L2C RFO          ACCESS:      58133 HIT:      20490 MISS:      37643 MSHR_MERGE:          0
cpu0->cpu0_L2C PREFETCH     ACCESS:          0 HIT:          0 MISS:          0 MSHR_MERGE:          0
cpu0->cpu0_L2C WRITE        ACCESS:     240264 HIT:     164558 MISS:      75706 MSHR_MERGE:          0
cpu0->cpu0_L2C TRANSLATION  ACCESS:     267863 HIT:      56866 MISS:     210997 MSHR_MERGE:          0
cpu0->cpu0_L2C PREFETCH REQUESTED:          0 ISSUED:          0 USEFUL:          0 USELESS:          0
cpu0->cpu0_L2C AVERAGE MISS LATENCY: 136.5 cycles
cpu0->cpu0_L1I TOTAL        ACCESS:    3343495 HIT:    3325243 MISS:      18252 MSHR_MERGE:       4392
cpu0->cpu0_L1I LOAD         ACCESS:    3343495 HIT:    3325243 MISS:      18252 MSHR_MERGE:       4392
cpu0->cpu0_L1I RFO          ACCESS:          0 HIT:          0 MISS:          0 MSHR_MERGE:          0
cpu0->cpu0_L1I PREFETCH     ACCESS:          0 HIT:          0 MISS:          0 MSHR_MERGE:          0
cpu0->cpu0_L1I WRITE        ACCESS:          0 HIT:          0 MISS:          0 MSHR_MERGE:          0
cpu0->cpu0_L1I TRANSLATION  ACCESS:          0 HIT:          0 MISS:          0 MSHR_MERGE:          0
cpu0->cpu0_L1I PREFETCH REQUESTED:          0 ISSUED:          0 USEFUL:          0 USELESS:          0
cpu0->cpu0_L1I AVERAGE MISS LATENCY: 18.75 cycles
cpu0->cpu0_L1D TOTAL        ACCESS:   10262702 HIT:    9251885 MISS:    1010817 MSHR_MERGE:     247040
cpu0->cpu0_L1D LOAD         ACCESS:    5445472 HIT:    4882596 MISS:     562876 MSHR_MERGE:     125095
cpu0->cpu0_L1D RFO          ACCESS:          0 HIT:          0 MISS:          0 MSHR_MERGE:          0
cpu0->cpu0_L1D PREFETCH     ACCESS:          0 HIT:          0 MISS:          0 MSHR_MERGE:          0
cpu0->cpu0_L1D WRITE        ACCESS:    4527064 HIT:    4347728 MISS:     179336 MSHR_MERGE:     121203
cpu0->cpu0_L1D TRANSLATION  ACCESS:     290166 HIT:      21561 MISS:     268605 MSHR_MERGE:        742
cpu0->cpu0_L1D PREFETCH REQUESTED:          0 ISSUED:          0 USEFUL:          0 USELESS:          0
cpu0->cpu0_L1D AVERAGE MISS LATENCY: 123.5 cycles
cpu0->cpu0_ITLB TOTAL        ACCESS:    2949279 HIT:    2871687 MISS:      77592 MSHR_MERGE:      37447
cpu0->cpu0_ITLB LOAD         ACCESS:    2949279 HIT:    2871687 MISS:      77592 MSHR_MERGE:      37447
cpu0->cpu0_ITLB RFO          ACCESS:          0 HIT:          0 MISS:          0 MSHR_MERGE:          0
cpu0->cpu0_ITLB PREFETCH     ACCESS:          0 HIT:          0 MISS:          0 MSHR_MERGE:          0
cpu0->cpu0_ITLB WRITE        ACCESS:          0 HIT:          0 MISS:          0 MSHR_MERGE:          0
cpu0->cpu0_ITLB TRANSLATION  ACCESS:          0 HIT:          0 MISS:          0 MSHR_MERGE:          0
cpu0->cpu0_ITLB PREFETCH REQUESTED:          0 ISSUED:          0 USEFUL:          0 USELESS:          0
cpu0->cpu0_ITLB AVERAGE MISS LATENCY: 7.432 cycles
cpu0->cpu0_DTLB TOTAL        ACCESS:    9480342 HIT:    8870163 MISS:     610179 MSHR_MERGE:      87430
cpu0->cpu0_DTLB LOAD         ACCESS:    9480342 HIT:    8870163 MISS:     610179 MSHR_MERGE:      87430
cpu0->cpu0_DTLB RFO          ACCESS:          0 HIT:          0 MISS:          0 MSHR_MERGE:          0
cpu0->cpu0_DTLB PREFETCH     ACCESS:          0 HIT:          0 MISS:          0 MSHR_MERGE:          0
cpu0->cpu0_DTLB WRITE        ACCESS:          0 HIT:          0 MISS:          0 MSHR_MERGE:          0
cpu0->cpu0_DTLB TRANSLATION  ACCESS:          0 HIT:          0 MISS:          0 MSHR_MERGE:          0
cpu0->cpu0_DTLB PREFETCH REQUESTED:          0 ISSUED:          0 USEFUL:          0 USELESS:          0
cpu0->cpu0_DTLB AVERAGE MISS LATENCY: 89.07 cycles
cpu0->LLC TOTAL        ACCESS:     725578 HIT:     263481 MISS:     462097 MSHR_MERGE:          0
cpu0->LLC LOAD         ACCESS:     320803 HIT:      76665 MISS:     244138 MSHR_MERGE:          0
cpu0->LLC RFO          ACCESS:      37642 HIT:       9165 MISS:      28477 MSHR_MERGE:          0
cpu0->LLC PREFETCH     ACCESS:          0 HIT:          0 MISS:          0 MSHR_MERGE:          0
cpu0->LLC WRITE        ACCESS:     156136 HIT:     109176 MISS:      46960 MSHR_MERGE:          0
cpu0->LLC TRANSLATION  ACCESS:     210997 HIT:      68475 MISS:     142522 MSHR_MERGE:          0
cpu0->LLC PREFETCH REQUESTED:          0 ISSUED:          0 USEFUL:          0 USELESS:          0
cpu0->LLC AVERAGE MISS LATENCY: 171.5 cycles

DRAM Statistics

Channel 0 RQ ROW_BUFFER_HIT:       1414
  ROW_BUFFER_MISS:     413719
  AVG DBUS CONGESTED CYCLE: 19.99
Channel 0 WQ ROW_BUFFER_HIT:      45635
  ROW_BUFFER_MISS:      90696
  FULL:          0
Channel 0 REFRESHES ISSUED:       7566
