[VMEM] WARNING: physical memory size is smaller than virtual memory size.

*** ChampSim Multicore Out-of-Order Simulator ***
Warmup Instructions: 5000000
Simulation Instructions: 25000000
Number of CPUs: 1
Page size: 4096

Off-chip DRAM Size: 16 GiB Channels: 1 Width: 64-bit Data Rate: 3205 MT/s
Warmup finished CPU 0 instructions: 5000004 cycles: 1255151 cumulative IPC: 3.984 (Simulation time: 00 hr 00 min 17 sec)
Warmup complete CPU 0 instructions: 5000004 cycles: 1255151 cumulative IPC: 3.984 (Simulation time: 00 hr 00 min 17 sec)
Heartbeat CPU 0 instructions: 10000000 cycles: 5119018 heartbeat IPC: 1.953 cumulative IPC: 1.294 (Simulation time: 00 hr 00 min 45 sec)
Heartbeat CPU 0 instructions: 20000000 cycles: 12743188 heartbeat IPC: 1.312 cumulative IPC: 1.306 (Simulation time: 00 hr 01 min 38 sec)
Heartbeat CPU 0 instructions: 30000000 cycles: 20395737 heartbeat IPC: 1.307 cumulative IPC: 1.306 (Simulation time: 00 hr 02 min 33 sec)
Simulation finished CPU 0 instructions: 25000000 cycles: 19140594 cumulative IPC: 1.306 (Simulation time: 00 hr 02 min 33 sec)
Simulation complete CPU 0 instructions: 25000000 cycles: 19140594 cumulative IPC: 1.306 (Simulation time: 00 hr 02 min 33 sec)

ChampSim completed all CPUs

=== Simulation ===
CPU 0 runs ../../hw2/traces/621.wrf_s-575B.champsimtrace.xz

Region of Interest Statistics

CPU 0 cumulative IPC: 1.306 instructions: 25000000 cycles: 19140594
CPU 0 Branch Prediction Accuracy: 93.12% MPKI: 9.201 Average ROB Occupancy at Mispredict: 67.76
Branch type MPKI
BRANCH_DIRECT_JUMP: 0.00064
BRANCH_INDIRECT: 0
BRANCH_CONDITIONAL: 9.177
BRANCH_DIRECT_CALL: 0.00312
BRANCH_INDIRECT_CALL: 0
BRANCH_RETURN: 0.02012

cpu0->cpu0_STLB TOTAL        ACCESS:       1021 HIT:        937 MISS:         84 MSHR_MERGE:          0
cpu0->cpu0_STLB LOAD         ACCESS:       1021 HIT:        937 MISS:         84 MSHR_MERGE:          0
cpu0->cpu0_STLB RFO          ACCESS:          0 HIT:          0 MISS:          0 MSHR_MERGE:          0
cpu0->cpu0_STLB PREFETCH     ACCESS:          0 HIT:          0 MISS:          0 MSHR_MERGE:          0
cpu0->cpu0_STLB WRITE        ACCESS:          0 HIT:          0 MISS:          0 MSHR_MERGE:          0
cpu0->cpu0_STLB TRANSLATION  ACCESS:          0 HIT:          0 MISS:          0 MSHR_MERGE:          0
cpu0->cpu0_STLB PREFETCH REQUESTED:          0 ISSUED:          0 USEFUL:          0 USELESS:          0
cpu0->cpu0_STLB AVERAGE MISS LATENCY: 883 cycles
cpu0->cpu0_L2C TOTAL        ACCESS:       1788 HIT:        418 MISS:       1370 MSHR_MERGE:          0
cpu0->cpu0_L2C LOAD         ACCESS:        830 HIT:        163 MISS:        667 MSHR_MERGE:          0
cpu0->cpu0_L2C RFO          ACCESS:        554 HIT:         12 MISS:        542 MSHR_MERGE:          0
cpu0->cpu0_L2C PREFETCH     ACCESS:          0 HIT:          0 MISS:          0 MSHR_MERGE:          0
cpu0->cpu0_L2C WRITE        ACCESS:        240 HIT:        240 MISS:          0 MSHR_MERGE:          0
cpu0->cpu0_L2C TRANSLATION  ACCESS:        164 HIT:          3 MISS:        161 MSHR_MERGE:          0
cpu0->cpu0_L2C PREFETCH REQUESTED:          0 ISSUED:          0 USEFUL:          0 USELESS:          0
cpu0->cpu0_L2C AVERAGE MISS LATENCY: 201.8 cycles
cpu0->cpu0_L1I TOTAL        ACCESS:     579860 HIT:     579287 MISS:        573 MSHR_MERGE:        167
cpu0->cpu0_L1I LOAD         ACCESS:     579860 HIT:     579287 MISS:        573 MSHR_MERGE:        167
cpu0->cpu0_L1I RFO          ACCESS:          0 HIT:          0 MISS:          0 MSHR_MERGE:          0
cpu0->cpu0_L1I PREFETCH     ACCESS:          0 HIT:          0 MISS:          0 MSHR_MERGE:          0
cpu0->cpu0_L1I WRITE        ACCESS:          0 HIT:          0 MISS:          0 MSHR_MERGE:          0
cpu0->cpu0_L1I TRANSLATION  ACCESS:          0 HIT:          0 MISS:          0 MSHR_MERGE:          0
cpu0->cpu0_L1I PREFETCH REQUESTED:          0 ISSUED:          0 USEFUL:          0 USELESS:          0
cpu0->cpu0_L1I AVERAGE MISS LATENCY: 144.4 cycles
cpu0->cpu0_L1D TOTAL        ACCESS:    4660119 HIT:    4657677 MISS:       2442 MSHR_MERGE:       1300
cpu0->cpu0_L1D LOAD         ACCESS:    3686574 HIT:    3685689 MISS:        885 MSHR_MERGE:        461
cpu0->cpu0_L1D RFO          ACCESS:          0 HIT:          0 MISS:          0 MSHR_MERGE:          0
cpu0->cpu0_L1D PREFETCH     ACCESS:          0 HIT:          0 MISS:          0 MSHR_MERGE:          0
cpu0->cpu0_L1D WRITE        ACCESS:     973363 HIT:     971975 MISS:       1388 MSHR_MERGE:        834
cpu0->cpu0_L1D TRANSLATION  ACCESS:        182 HIT:         13 MISS:        169 MSHR_MERGE:          5
cpu0->cpu0_L1D PREFETCH REQUESTED:          0 ISSUED:          0 USEFUL:          0 USELESS:          0
cpu0->cpu0_L1D AVERAGE MISS LATENCY: 202.4 cycles
cpu0->cpu0_ITLB TOTAL        ACCESS:     478605 HIT:     478572 MISS:         33 MSHR_MERGE:         22
cpu0->cpu0_ITLB LOAD         ACCESS:     478605 HIT:     478572 MISS:         33 MSHR_MERGE:         22
cpu0->cpu0_ITLB RFO          ACCESS:          0 HIT:          0 MISS:          0 MSHR_MERGE:          0
cpu0->cpu0_ITLB PREFETCH     ACCESS:          0 HIT:          0 MISS:          0 MSHR_MERGE:          0
cpu0->cpu0_ITLB WRITE        ACCESS:          0 HIT:          0 MISS:          0 MSHR_MERGE:          0
cpu0->cpu0_ITLB TRANSLATION  ACCESS:          0 HIT:          0 MISS:          0 MSHR_MERGE:          0
cpu0->cpu0_ITLB PREFETCH REQUESTED:          0 ISSUED:          0 USEFUL:          0 USELESS:          0
cpu0->cpu0_ITLB AVERAGE MISS LATENCY: 763.5 cycles
cpu0->cpu0_DTLB TOTAL        ACCESS:    4580091 HIT:    4578620 MISS:       1471 MSHR_MERGE:        461
cpu0->cpu0_DTLB LOAD         ACCESS:    4580091 HIT:    4578620 MISS:       1471 MSHR_MERGE:        461
cpu0->cpu0_DTLB RFO          ACCESS:          0 HIT:          0 MISS:          0 MSHR_MERGE:          0
cpu0->cpu0_DTLB PREFETCH     ACCESS:          0 HIT:          0 MISS:          0 MSHR_MERGE:          0
cpu0->cpu0_DTLB WRITE        ACCESS:          0 HIT:          0 MISS:          0 MSHR_MERGE:          0
cpu0->cpu0_DTLB TRANSLATION  ACCESS:          0 HIT:          0 MISS:          0 MSHR_MERGE:          0
cpu0->cpu0_DTLB PREFETCH REQUESTED:          0 ISSUED:          0 USEFUL:          0 USELESS:          0
cpu0->cpu0_DTLB AVERAGE MISS LATENCY: 70.26 cycles
cpu0->LLC TOTAL        ACCESS:       1370 HIT:          0 MISS:       1370 MSHR_MERGE:          0
cpu0->LLC LOAD         ACCESS:        667 HIT:          0 MISS:        667 MSHR_MERGE:          0
cpu0->LLC RFO          ACCESS:        542 HIT:          0 MISS:        542 MSHR_MERGE:          0
cpu0->LLC PREFETCH     ACCESS:          0 HIT:          0 MISS:          0 MSHR_MERGE:          0
cpu0->LLC WRITE        ACCESS:          0 HIT:          0 MISS:          0 MSHR_MERGE:          0
cpu0->LLC TRANSLATION  ACCESS:        161 HIT:          0 MISS:        161 MSHR_MERGE:          0
cpu0->LLC PREFETCH REQUESTED:          0 ISSUED:          0 USEFUL:          0 USELESS:          0
cpu0->LLC AVERAGE MISS LATENCY: 185.8 cycles

DRAM Statistics

Channel 0 RQ ROW_BUFFER_HIT:          2
  ROW_BUFFER_MISS:       1368
  AVG DBUS CONGESTED CYCLE: 2.896
Channel 0 WQ ROW_BUFFER_HIT:          0
  ROW_BUFFER_MISS:          0
  FULL:          0
Channel 0 REFRESHES ISSUED:       1595
