[VMEM] WARNING: physical memory size is smaller than virtual memory size.

*** ChampSim Multicore Out-of-Order Simulator ***
Warmup Instructions: 5000000
Simulation Instructions: 25000000
Number of CPUs: 1
Page size: 4096

Off-chip DRAM Size: 16 GiB Channels: 1 Width: 64-bit Data Rate: 3205 MT/s
Warmup finished CPU 0 instructions: 5000002 cycles: 1482126 cumulative IPC: 3.374 (Simulation time: 00 hr 00 min 20 sec)
Warmup complete CPU 0 instructions: 5000002 cycles: 1482126 cumulative IPC: 3.374 (Simulation time: 00 hr 00 min 20 sec)
Heartbeat CPU 0 instructions: 10000000 cycles: 6303357 heartbeat IPC: 1.586 cumulative IPC: 1.037 (Simulation time: 00 hr 01 min 03 sec)
Heartbeat CPU 0 instructions: 20000000 cycles: 13491408 heartbeat IPC: 1.391 cumulative IPC: 1.249 (Simulation time: 00 hr 02 min 02 sec)
Heartbeat CPU 0 instructions: 30000002 cycles: 23329547 heartbeat IPC: 1.016 cumulative IPC: 1.144 (Simulation time: 00 hr 03 min 16 sec)
Simulation finished CPU 0 instructions: 25000000 cycles: 21847421 cumulative IPC: 1.144 (Simulation time: 00 hr 03 min 16 sec)
Simulation complete CPU 0 instructions: 25000000 cycles: 21847421 cumulative IPC: 1.144 (Simulation time: 00 hr 03 min 16 sec)

ChampSim completed all CPUs

=== Simulation ===
CPU 0 runs ../../hw2/traces/627.cam4_s-490B.champsimtrace.xz

Region of Interest Statistics

CPU 0 cumulative IPC: 1.144 instructions: 25000000 cycles: 21847421
CPU 0 Branch Prediction Accuracy: 88.99% MPKI: 10.5 Average ROB Occupancy at Mispredict: 30.95
Branch type MPKI
BRANCH_DIRECT_JUMP: 0.00488
BRANCH_INDIRECT: 0
BRANCH_CONDITIONAL: 10.5
BRANCH_DIRECT_CALL: 0.00032
BRANCH_INDIRECT_CALL: 0
BRANCH_RETURN: 0.00044

cpu0->cpu0_STLB TOTAL        ACCESS:       8024 HIT:       7373 MISS:        651 MSHR_MERGE:          0
cpu0->cpu0_STLB LOAD         ACCESS:       8024 HIT:       7373 MISS:        651 MSHR_MERGE:          0
cpu0->cpu0_STLB RFO          ACCESS:          0 HIT:          0 MISS:          0 MSHR_MERGE:          0
cpu0->cpu0_STLB PREFETCH     ACCESS:          0 HIT:          0 MISS:          0 MSHR_MERGE:          0
cpu0->cpu0_STLB WRITE        ACCESS:          0 HIT:          0 MISS:          0 MSHR_MERGE:          0
cpu0->cpu0_STLB TRANSLATION  ACCESS:          0 HIT:          0 MISS:          0 MSHR_MERGE:          0
cpu0->cpu0_STLB PREFETCH REQUESTED:          0 ISSUED:          0 USEFUL:          0 USELESS:          0
cpu0->cpu0_STLB AVERAGE MISS LATENCY: 715.7 cycles
cpu0->cpu0_L2C TOTAL        ACCESS:     667940 HIT:     227071 MISS:     440869 MSHR_MERGE:          0
cpu0->cpu0_L2C LOAD         ACCESS:     330482 HIT:     113482 MISS:     217000 MSHR_MERGE:          0
cpu0->cpu0_L2C RFO          ACCESS:     136464 HIT:      16093 MISS:     120371 MSHR_MERGE:          0
cpu0->cpu0_L2C PREFETCH     ACCESS:          0 HIT:          0 MISS:          0 MSHR_MERGE:          0
cpu0->cpu0_L2C WRITE        ACCESS:     200173 HIT:      97496 MISS:     102677 MSHR_MERGE:          0
cpu0->cpu0_L2C TRANSLATION  ACCESS:        821 HIT:          0 MISS:        821 MSHR_MERGE:          0
cpu0->cpu0_L2C PREFETCH REQUESTED:          0 ISSUED:          0 USEFUL:          0 USELESS:          0
cpu0->cpu0_L2C AVERAGE MISS LATENCY: 79.17 cycles
cpu0->cpu0_L1I TOTAL        ACCESS:    1749352 HIT:    1748309 MISS:       1043 MSHR_MERGE:        506
cpu0->cpu0_L1I LOAD         ACCESS:    1749352 HIT:    1748309 MISS:       1043 MSHR_MERGE:        506
cpu0->cpu0_L1I RFO          ACCESS:          0 HIT:          0 MISS:          0 MSHR_MERGE:          0
cpu0->cpu0_L1I PREFETCH     ACCESS:          0 HIT:          0 MISS:          0 MSHR_MERGE:          0
cpu0->cpu0_L1I WRITE        ACCESS:          0 HIT:          0 MISS:          0 MSHR_MERGE:          0
cpu0->cpu0_L1I TRANSLATION  ACCESS:          0 HIT:          0 MISS:          0 MSHR_MERGE:          0
cpu0->cpu0_L1I PREFETCH REQUESTED:          0 ISSUED:          0 USEFUL:          0 USELESS:          0
cpu0->cpu0_L1I AVERAGE MISS LATENCY: 253 cycles
cpu0->cpu0_L1D TOTAL        ACCESS:    4981573 HIT:    3623822 MISS:    1357751 MSHR_MERGE:     890520
cpu0->cpu0_L1D LOAD         ACCESS:    3323358 HIT:    2594460 MISS:     728898 MSHR_MERGE:     398952
cpu0->cpu0_L1D RFO          ACCESS:          0 HIT:          0 MISS:          0 MSHR_MERGE:          0
cpu0->cpu0_L1D PREFETCH     ACCESS:          0 HIT:          0 MISS:          0 MSHR_MERGE:          0
cpu0->cpu0_L1D WRITE        ACCESS:    1656901 HIT:    1028871 MISS:     628030 MSHR_MERGE:     491566
cpu0->cpu0_L1D TRANSLATION  ACCESS:       1314 HIT:        491 MISS:        823 MSHR_MERGE:          2
cpu0->cpu0_L1D PREFETCH REQUESTED:          0 ISSUED:          0 USEFUL:          0 USELESS:          0
cpu0->cpu0_L1D AVERAGE MISS LATENCY: 82.32 cycles
cpu0->cpu0_ITLB TOTAL        ACCESS:    1573358 HIT:    1573336 MISS:         22 MSHR_MERGE:         16
cpu0->cpu0_ITLB LOAD         ACCESS:    1573358 HIT:    1573336 MISS:         22 MSHR_MERGE:         16
cpu0->cpu0_ITLB RFO          ACCESS:          0 HIT:          0 MISS:          0 MSHR_MERGE:          0
cpu0->cpu0_ITLB PREFETCH     ACCESS:          0 HIT:          0 MISS:          0 MSHR_MERGE:          0
cpu0->cpu0_ITLB WRITE        ACCESS:          0 HIT:          0 MISS:          0 MSHR_MERGE:          0
cpu0->cpu0_ITLB TRANSLATION  ACCESS:          0 HIT:          0 MISS:          0 MSHR_MERGE:          0
cpu0->cpu0_ITLB PREFETCH REQUESTED:          0 ISSUED:          0 USEFUL:          0 USELESS:          0
cpu0->cpu0_ITLB AVERAGE MISS LATENCY: 884 cycles
cpu0->cpu0_DTLB TOTAL        ACCESS:    4825583 HIT:    4810156 MISS:      15427 MSHR_MERGE:       7409
cpu0->cpu0_DTLB LOAD         ACCESS:    4825583 HIT:    4810156 MISS:      15427 MSHR_MERGE:       7409
cpu0->cpu0_DTLB RFO          ACCESS:          0 HIT:          0 MISS:          0 MSHR_MERGE:          0
cpu0->cpu0_DTLB PREFETCH     ACCESS:          0 HIT:          0 MISS:          0 MSHR_MERGE:          0
cpu0->cpu0_DTLB WRITE        ACCESS:          0 HIT:          0 MISS:          0 MSHR_MERGE:          0
cpu0->cpu0_DTLB TRANSLATION  ACCESS:          0 HIT:          0 MISS:          0 MSHR_MERGE:          0
cpu0->cpu0_DTLB PREFETCH REQUESTED:          0 ISSUED:          0 USEFUL:          0 USELESS:          0
cpu0->cpu0_DTLB AVERAGE MISS LATENCY: 62.53 cycles
cpu0->LLC TOTAL        ACCESS:     500181 HIT:     374719 MISS:     125462 MSHR_MERGE:          0
cpu0->LLC LOAD         ACCESS:     217000 HIT:     167990 MISS:      49010 MSHR_MERGE:          0
cpu0->LLC RFO          ACCESS:     120371 HIT:      58981 MISS:      61390 MSHR_MERGE:          0
cpu0->LLC PREFETCH     ACCESS:          0 HIT:          0 MISS:          0 MSHR_MERGE:          0
cpu0->LLC WRITE        ACCESS:     161989 HIT:     147741 MISS:      14248 MSHR_MERGE:          0
cpu0->LLC TRANSLATION  ACCESS:        821 HIT:          7 MISS:        814 MSHR_MERGE:          0
cpu0->LLC PREFETCH REQUESTED:          0 ISSUED:          0 USEFUL:          0 USELESS:          0
cpu0->LLC AVERAGE MISS LATENCY: 234.5 cycles

DRAM Statistics

Channel 0 RQ ROW_BUFFER_HIT:       6429
  ROW_BUFFER_MISS:     104645
  AVG DBUS CONGESTED CYCLE: 10.24
Channel 0 WQ ROW_BUFFER_HIT:      18858
  ROW_BUFFER_MISS:      68499
  FULL:        100
Channel 0 REFRESHES ISSUED:       1821
