[VMEM] WARNING: physical memory size is smaller than virtual memory size.

*** ChampSim Multicore Out-of-Order Simulator ***
Warmup Instructions: 5000000
Simulation Instructions: 25000000
Number of CPUs: 1
Page size: 4096

Off-chip DRAM Size: 16 GiB Channels: 1 Width: 64-bit Data Rate: 3205 MT/s
Warmup finished CPU 0 instructions: 5000001 cycles: 1465756 cumulative IPC: 3.411 (Simulation time: 00 hr 00 min 19 sec)
Warmup complete CPU 0 instructions: 5000001 cycles: 1465756 cumulative IPC: 3.411 (Simulation time: 00 hr 00 min 19 sec)
Heartbeat CPU 0 instructions: 10000002 cycles: 5367091 heartbeat IPC: 1.863 cumulative IPC: 1.282 (Simulation time: 00 hr 00 min 50 sec)
Heartbeat CPU 0 instructions: 20000003 cycles: 13266685 heartbeat IPC: 1.266 cumulative IPC: 1.271 (Simulation time: 00 hr 01 min 49 sec)
Simulation finished CPU 0 instructions: 25000001 cycles: 19686109 cumulative IPC: 1.27 (Simulation time: 00 hr 02 min 49 sec)
Simulation complete CPU 0 instructions: 25000001 cycles: 19686109 cumulative IPC: 1.27 (Simulation time: 00 hr 02 min 49 sec)

ChampSim completed all CPUs

=== Simulation ===
CPU 0 runs ../../hw2/traces/628.pop2_s-17B.champsimtrace.xz

Region of Interest Statistics

CPU 0 cumulative IPC: 1.27 instructions: 25000001 cycles: 19686109
CPU 0 Branch Prediction Accuracy: 96.44% MPKI: 4.069 Average ROB Occupancy at Mispredict: 91.79
Branch type MPKI
BRANCH_DIRECT_JUMP: 0.05124
BRANCH_INDIRECT: 0.0016
BRANCH_CONDITIONAL: 4.016
BRANCH_DIRECT_CALL: 0
BRANCH_INDIRECT_CALL: 0
BRANCH_RETURN: 0

cpu0->cpu0_STLB TOTAL        ACCESS:      21995 HIT:      20765 MISS:       1230 MSHR_MERGE:          0
cpu0->cpu0_STLB LOAD         ACCESS:      21995 HIT:      20765 MISS:       1230 MSHR_MERGE:          0
cpu0->cpu0_STLB RFO          ACCESS:          0 HIT:          0 MISS:          0 MSHR_MERGE:          0
cpu0->cpu0_STLB PREFETCH     ACCESS:          0 HIT:          0 MISS:          0 MSHR_MERGE:          0
cpu0->cpu0_STLB WRITE        ACCESS:          0 HIT:          0 MISS:          0 MSHR_MERGE:          0
cpu0->cpu0_STLB TRANSLATION  ACCESS:          0 HIT:          0 MISS:          0 MSHR_MERGE:          0
cpu0->cpu0_STLB PREFETCH REQUESTED:          0 ISSUED:          0 USEFUL:          0 USELESS:          0
cpu0->cpu0_STLB AVERAGE MISS LATENCY: 743.1 cycles
cpu0->cpu0_L2C TOTAL        ACCESS:     753500 HIT:     503562 MISS:     249938 MSHR_MERGE:          0
cpu0->cpu0_L2C LOAD         ACCESS:     410724 HIT:     208396 MISS:     202328 MSHR_MERGE:          0
cpu0->cpu0_L2C RFO          ACCESS:     136403 HIT:     113371 MISS:      23032 MSHR_MERGE:          0
cpu0->cpu0_L2C PREFETCH     ACCESS:          0 HIT:          0 MISS:          0 MSHR_MERGE:          0
cpu0->cpu0_L2C WRITE        ACCESS:     203776 HIT:     181720 MISS:      22056 MSHR_MERGE:          0
cpu0->cpu0_L2C TRANSLATION  ACCESS:       2597 HIT:         75 MISS:       2522 MSHR_MERGE:          0
cpu0->cpu0_L2C PREFETCH REQUESTED:          0 ISSUED:          0 USEFUL:          0 USELESS:          0
cpu0->cpu0_L2C AVERAGE MISS LATENCY: 73.26 cycles
cpu0->cpu0_L1I TOTAL        ACCESS:    1901373 HIT:    1847510 MISS:      53863 MSHR_MERGE:      24322
cpu0->cpu0_L1I LOAD         ACCESS:    1901373 HIT:    1847510 MISS:      53863 MSHR_MERGE:      24322
cpu0->cpu0_L1I RFO          ACCESS:          0 HIT:          0 MISS:          0 MSHR_MERGE:          0
cpu0->cpu0_L1I PREFETCH     ACCESS:          0 HIT:          0 MISS:          0 MSHR_MERGE:          0
cpu0->cpu0_L1I WRITE        ACCESS:          0 HIT:          0 MISS:          0 MSHR_MERGE:          0
cpu0->cpu0_L1I TRANSLATION  ACCESS:          0 HIT:          0 MISS:          0 MSHR_MERGE:          0
cpu0->cpu0_L1I PREFETCH REQUESTED:          0 ISSUED:          0 USEFUL:          0 USELESS:          0
cpu0->cpu0_L1I AVERAGE MISS LATENCY: 22.14 cycles
cpu0->cpu0_L1D TOTAL        ACCESS:    6523713 HIT:    5366621 MISS:    1157092 MSHR_MERGE:     636907
cpu0->cpu0_L1D LOAD         ACCESS:    4628763 HIT:    3901744 MISS:     727019 MSHR_MERGE:     345836
cpu0->cpu0_L1D RFO          ACCESS:          0 HIT:          0 MISS:          0 MSHR_MERGE:          0
cpu0->cpu0_L1D PREFETCH     ACCESS:          0 HIT:          0 MISS:          0 MSHR_MERGE:          0
cpu0->cpu0_L1D WRITE        ACCESS:    1892086 HIT:    1464686 MISS:     427400 MSHR_MERGE:     290995
cpu0->cpu0_L1D TRANSLATION  ACCESS:       2864 HIT:        191 MISS:       2673 MSHR_MERGE:         76
cpu0->cpu0_L1D PREFETCH REQUESTED:          0 ISSUED:          0 USEFUL:          0 USELESS:          0
cpu0->cpu0_L1D AVERAGE MISS LATENCY: 42.67 cycles
cpu0->cpu0_ITLB TOTAL        ACCESS:    1549768 HIT:    1546640 MISS:       3128 MSHR_MERGE:       1889
cpu0->cpu0_ITLB LOAD         ACCESS:    1549768 HIT:    1546640 MISS:       3128 MSHR_MERGE:       1889
cpu0->cpu0_ITLB RFO          ACCESS:          0 HIT:          0 MISS:          0 MSHR_MERGE:          0
cpu0->cpu0_ITLB PREFETCH     ACCESS:          0 HIT:          0 MISS:          0 MSHR_MERGE:          0
cpu0->cpu0_ITLB WRITE        ACCESS:          0 HIT:          0 MISS:          0 MSHR_MERGE:          0
cpu0->cpu0_ITLB TRANSLATION  ACCESS:          0 HIT:          0 MISS:          0 MSHR_MERGE:          0
cpu0->cpu0_ITLB PREFETCH REQUESTED:          0 ISSUED:          0 USEFUL:          0 USELESS:          0
cpu0->cpu0_ITLB AVERAGE MISS LATENCY: 5 cycles
cpu0->cpu0_DTLB TOTAL        ACCESS:    6269822 HIT:    6234415 MISS:      35407 MSHR_MERGE:      14651
cpu0->cpu0_DTLB LOAD         ACCESS:    6269822 HIT:    6234415 MISS:      35407 MSHR_MERGE:      14651
cpu0->cpu0_DTLB RFO          ACCESS:          0 HIT:          0 MISS:          0 MSHR_MERGE:          0
cpu0->cpu0_DTLB PREFETCH     ACCESS:          0 HIT:          0 MISS:          0 MSHR_MERGE:          0
cpu0->cpu0_DTLB WRITE        ACCESS:          0 HIT:          0 MISS:          0 MSHR_MERGE:          0
cpu0->cpu0_DTLB TRANSLATION  ACCESS:          0 HIT:          0 MISS:          0 MSHR_MERGE:          0
cpu0->cpu0_DTLB PREFETCH REQUESTED:          0 ISSUED:          0 USEFUL:          0 USELESS:          0
cpu0->cpu0_DTLB AVERAGE MISS LATENCY: 49.1 cycles
cpu0->LLC TOTAL        ACCESS:     273834 HIT:     194651 MISS:      79183 MSHR_MERGE:          0
cpu0->LLC LOAD         ACCESS:     202328 HIT:     132233 MISS:      70095 MSHR_MERGE:          0
cpu0->LLC RFO          ACCESS:      23032 HIT:      17503 MISS:       5529 MSHR_MERGE:          0
cpu0->LLC PREFETCH     ACCESS:          0 HIT:          0 MISS:          0 MSHR_MERGE:          0
cpu0->LLC WRITE        ACCESS:      45952 HIT:      44148 MISS:       1804 MSHR_MERGE:          0
cpu0->LLC TRANSLATION  ACCESS:       2522 HIT:        767 MISS:       1755 MSHR_MERGE:          0
cpu0->LLC PREFETCH REQUESTED:          0 ISSUED:          0 USEFUL:          0 USELESS:          0
cpu0->LLC AVERAGE MISS LATENCY: 186.2 cycles

DRAM Statistics

Channel 0 RQ ROW_BUFFER_HIT:       2268
  ROW_BUFFER_MISS:      75109
  AVG DBUS CONGESTED CYCLE: 14.84
Channel 0 WQ ROW_BUFFER_HIT:       5173
  ROW_BUFFER_MISS:      15615
  FULL:          0
Channel 0 REFRESHES ISSUED:       1640
