[VMEM] WARNING: physical memory size is smaller than virtual memory size.

*** ChampSim Multicore Out-of-Order Simulator ***
Warmup Instructions: 5000000
Simulation Instructions: 25000000
Number of CPUs: 1
Page size: 4096

Off-chip DRAM Size: 16 GiB Channels: 1 Width: 64-bit Data Rate: 3205 MT/s
Warmup finished CPU 0 instructions: 5000001 cycles: 1343832 cumulative IPC: 3.721 (Simulation time: 00 hr 00 min 18 sec)
Warmup complete CPU 0 instructions: 5000001 cycles: 1343832 cumulative IPC: 3.721 (Simulation time: 00 hr 00 min 18 sec)
Heartbeat CPU 0 instructions: 10000002 cycles: 5045352 heartbeat IPC: 1.982 cumulative IPC: 1.351 (Simulation time: 00 hr 00 min 44 sec)
Heartbeat CPU 0 instructions: 20000003 cycles: 17267644 heartbeat IPC: 0.8182 cumulative IPC: 0.942 (Simulation time: 00 hr 02 min 08 sec)
Simulation finished CPU 0 instructions: 25000000 cycles: 23663650 cumulative IPC: 1.056 (Simulation time: 00 hr 02 min 56 sec)
Simulation complete CPU 0 instructions: 25000000 cycles: 23663650 cumulative IPC: 1.056 (Simulation time: 00 hr 02 min 56 sec)

ChampSim completed all CPUs

=== Simulation ===
CPU 0 runs ../../hw2/traces/641.leela_s-149B.champsimtrace.xz

Region of Interest Statistics

CPU 0 cumulative IPC: 1.056 instructions: 25000000 cycles: 23663650
CPU 0 Branch Prediction Accuracy: 89.11% MPKI: 18.82 Average ROB Occupancy at Mispredict: 21.74
Branch type MPKI
BRANCH_DIRECT_JUMP: 0.1037
BRANCH_INDIRECT: 0.02064
BRANCH_CONDITIONAL: 18.64
BRANCH_DIRECT_CALL: 0.01192
BRANCH_INDIRECT_CALL: 0.0072
BRANCH_RETURN: 0.03844

cpu0->cpu0_STLB TOTAL        ACCESS:      12553 HIT:      12075 MISS:        478 MSHR_MERGE:          0
cpu0->cpu0_STLB LOAD         ACCESS:      12553 HIT:      12075 MISS:        478 MSHR_MERGE:          0
cpu0->cpu0_STLB RFO          ACCESS:          0 HIT:          0 MISS:          0 MSHR_MERGE:          0
cpu0->cpu0_STLB PREFETCH     ACCESS:          0 HIT:          0 MISS:          0 MSHR_MERGE:          0
cpu0->cpu0_STLB WRITE        ACCESS:          0 HIT:          0 MISS:          0 MSHR_MERGE:          0
cpu0->cpu0_STLB TRANSLATION  ACCESS:          0 HIT:          0 MISS:          0 MSHR_MERGE:          0
cpu0->cpu0_STLB PREFETCH REQUESTED:          0 ISSUED:          0 USEFUL:          0 USELESS:          0
cpu0->cpu0_STLB AVERAGE MISS LATENCY: 732.1 cycles
cpu0->cpu0_L2C TOTAL        ACCESS:     292668 HIT:     169782 MISS:     122886 MSHR_MERGE:          0
cpu0->cpu0_L2C LOAD         ACCESS:     124395 HIT:      64906 MISS:      59489 MSHR_MERGE:          0
cpu0->cpu0_L2C RFO          ACCESS:      63890 HIT:      39521 MISS:      24369 MSHR_MERGE:          0
cpu0->cpu0_L2C PREFETCH     ACCESS:          0 HIT:          0 MISS:          0 MSHR_MERGE:          0
cpu0->cpu0_L2C WRITE        ACCESS:     103632 HIT:      65351 MISS:      38281 MSHR_MERGE:          0
cpu0->cpu0_L2C TRANSLATION  ACCESS:        751 HIT:          4 MISS:        747 MSHR_MERGE:          0
cpu0->cpu0_L2C PREFETCH REQUESTED:          0 ISSUED:          0 USEFUL:          0 USELESS:          0
cpu0->cpu0_L2C AVERAGE MISS LATENCY: 48.42 cycles
cpu0->cpu0_L1I TOTAL        ACCESS:    3051778 HIT:    3040596 MISS:      11182 MSHR_MERGE:       3906
cpu0->cpu0_L1I LOAD         ACCESS:    3051778 HIT:    3040596 MISS:      11182 MSHR_MERGE:       3906
cpu0->cpu0_L1I RFO          ACCESS:          0 HIT:          0 MISS:          0 MSHR_MERGE:          0
cpu0->cpu0_L1I PREFETCH     ACCESS:          0 HIT:          0 MISS:          0 MSHR_MERGE:          0
cpu0->cpu0_L1I WRITE        ACCESS:          0 HIT:          0 MISS:          0 MSHR_MERGE:          0
cpu0->cpu0_L1I TRANSLATION  ACCESS:          0 HIT:          0 MISS:          0 MSHR_MERGE:          0
cpu0->cpu0_L1I PREFETCH REQUESTED:          0 ISSUED:          0 USEFUL:          0 USELESS:          0
cpu0->cpu0_L1I AVERAGE MISS LATENCY: 30.13 cycles
cpu0->cpu0_L1D TOTAL        ACCESS:    8178795 HIT:    7761625 MISS:     417170 MSHR_MERGE:     235410
cpu0->cpu0_L1D LOAD         ACCESS:    4620874 HIT:    4438690 MISS:     182184 MSHR_MERGE:      65065
cpu0->cpu0_L1D RFO          ACCESS:          0 HIT:          0 MISS:          0 MSHR_MERGE:          0
cpu0->cpu0_L1D PREFETCH     ACCESS:          0 HIT:          0 MISS:          0 MSHR_MERGE:          0
cpu0->cpu0_L1D WRITE        ACCESS:    3556964 HIT:    3322729 MISS:     234235 MSHR_MERGE:     170345
cpu0->cpu0_L1D TRANSLATION  ACCESS:        957 HIT:        206 MISS:        751 MSHR_MERGE:          0
cpu0->cpu0_L1D PREFETCH REQUESTED:          0 ISSUED:          0 USEFUL:          0 USELESS:          0
cpu0->cpu0_L1D AVERAGE MISS LATENCY: 39.49 cycles
cpu0->cpu0_ITLB TOTAL        ACCESS:    2773371 HIT:    2772752 MISS:        619 MSHR_MERGE:        333
cpu0->cpu0_ITLB LOAD         ACCESS:    2773371 HIT:    2772752 MISS:        619 MSHR_MERGE:        333
cpu0->cpu0_ITLB RFO          ACCESS:          0 HIT:          0 MISS:          0 MSHR_MERGE:          0
cpu0->cpu0_ITLB PREFETCH     ACCESS:          0 HIT:          0 MISS:          0 MSHR_MERGE:          0
cpu0->cpu0_ITLB WRITE        ACCESS:          0 HIT:          0 MISS:          0 MSHR_MERGE:          0
cpu0->cpu0_ITLB TRANSLATION  ACCESS:          0 HIT:          0 MISS:          0 MSHR_MERGE:          0
cpu0->cpu0_ITLB PREFETCH REQUESTED:          0 ISSUED:          0 USEFUL:          0 USELESS:          0
cpu0->cpu0_ITLB AVERAGE MISS LATENCY: 121.3 cycles
cpu0->cpu0_DTLB TOTAL        ACCESS:    7745336 HIT:    7727709 MISS:      17627 MSHR_MERGE:       5360
cpu0->cpu0_DTLB LOAD         ACCESS:    7745336 HIT:    7727709 MISS:      17627 MSHR_MERGE:       5360
cpu0->cpu0_DTLB RFO          ACCESS:          0 HIT:          0 MISS:          0 MSHR_MERGE:          0
cpu0->cpu0_DTLB PREFETCH     ACCESS:          0 HIT:          0 MISS:          0 MSHR_MERGE:          0
cpu0->cpu0_DTLB WRITE        ACCESS:          0 HIT:          0 MISS:          0 MSHR_MERGE:          0
cpu0->cpu0_DTLB TRANSLATION  ACCESS:          0 HIT:          0 MISS:          0 MSHR_MERGE:          0
cpu0->cpu0_DTLB PREFETCH REQUESTED:          0 ISSUED:          0 USEFUL:          0 USELESS:          0
cpu0->cpu0_DTLB AVERAGE MISS LATENCY: 30.86 cycles
cpu0->LLC TOTAL        ACCESS:     129499 HIT:     102618 MISS:      26881 MSHR_MERGE:          0
cpu0->LLC LOAD         ACCESS:      59489 HIT:      41385 MISS:      18104 MSHR_MERGE:          0
cpu0->LLC RFO          ACCESS:      24369 HIT:      16737 MISS:       7632 MSHR_MERGE:          0
cpu0->LLC PREFETCH     ACCESS:          0 HIT:          0 MISS:          0 MSHR_MERGE:          0
cpu0->LLC WRITE        ACCESS:      44894 HIT:      44491 MISS:        403 MSHR_MERGE:          0
cpu0->LLC TRANSLATION  ACCESS:        747 HIT:          5 MISS:        742 MSHR_MERGE:          0
cpu0->LLC PREFETCH REQUESTED:          0 ISSUED:          0 USEFUL:          0 USELESS:          0
cpu0->LLC AVERAGE MISS LATENCY: 167.6 cycles

DRAM Statistics

Channel 0 RQ ROW_BUFFER_HIT:       2676
  ROW_BUFFER_MISS:      23801
  AVG DBUS CONGESTED CYCLE: 14.62
Channel 0 WQ ROW_BUFFER_HIT:         77
  ROW_BUFFER_MISS:        593
  FULL:          0
Channel 0 REFRESHES ISSUED:       1972
