[VMEM] WARNING: physical memory size is smaller than virtual memory size.

*** ChampSim Multicore Out-of-Order Simulator ***
Warmup Instructions: 5000000
Simulation Instructions: 25000000
Number of CPUs: 1
Page size: 4096

Off-chip DRAM Size: 16 GiB Channels: 1 Width: 64-bit Data Rate: 3205 MT/s
Warmup finished CPU 0 instructions: 5000002 cycles: 1300158 cumulative IPC: 3.846 (Simulation time: 00 hr 00 min 17 sec)
Warmup complete CPU 0 instructions: 5000002 cycles: 1300158 cumulative IPC: 3.846 (Simulation time: 00 hr 00 min 17 sec)
Heartbeat CPU 0 instructions: 10000001 cycles: 4159559 heartbeat IPC: 2.404 cumulative IPC: 1.749 (Simulation time: 00 hr 00 min 38 sec)
Heartbeat CPU 0 instructions: 20000002 cycles: 10152297 heartbeat IPC: 1.669 cumulative IPC: 1.695 (Simulation time: 00 hr 01 min 24 sec)
Heartbeat CPU 0 instructions: 30000002 cycles: 16158714 heartbeat IPC: 1.665 cumulative IPC: 1.683 (Simulation time: 00 hr 02 min 07 sec)
Simulation finished CPU 0 instructions: 25000000 cycles: 14858556 cumulative IPC: 1.683 (Simulation time: 00 hr 02 min 07 sec)
Simulation complete CPU 0 instructions: 25000000 cycles: 14858556 cumulative IPC: 1.683 (Simulation time: 00 hr 02 min 07 sec)

ChampSim completed all CPUs

=== Simulation ===
CPU 0 runs ../../hw2/traces/644.nab_s-12459B.champsimtrace.xz

Region of Interest Statistics

CPU 0 cumulative IPC: 1.683 instructions: 25000000 cycles: 14858556
CPU 0 Branch Prediction Accuracy: 91.2% MPKI: 12.64 Average ROB Occupancy at Mispredict: 42.89
Branch type MPKI
BRANCH_DIRECT_JUMP: 0.2805
BRANCH_INDIRECT: 0
BRANCH_CONDITIONAL: 12.36
BRANCH_DIRECT_CALL: 0
BRANCH_INDIRECT_CALL: 0
BRANCH_RETURN: 0

cpu0->cpu0_STLB TOTAL        ACCESS:       5230 HIT:       5150 MISS:         80 MSHR_MERGE:          0
cpu0->cpu0_STLB LOAD         ACCESS:       5230 HIT:       5150 MISS:         80 MSHR_MERGE:          0
cpu0->cpu0_STLB RFO          ACCESS:          0 HIT:          0 MISS:          0 MSHR_MERGE:          0
cpu0->cpu0_STLB PREFETCH     ACCESS:          0 HIT:          0 MISS:          0 MSHR_MERGE:          0
cpu0->cpu0_STLB WRITE        ACCESS:          0 HIT:          0 MISS:          0 MSHR_MERGE:          0
cpu0->cpu0_STLB TRANSLATION  ACCESS:          0 HIT:          0 MISS:          0 MSHR_MERGE:          0
cpu0->cpu0_STLB PREFETCH REQUESTED:          0 ISSUED:          0 USEFUL:          0 USELESS:          0
cpu0->cpu0_STLB AVERAGE MISS LATENCY: 723.4 cycles
cpu0->cpu0_L2C TOTAL        ACCESS:     159957 HIT:     127587 MISS:      32370 MSHR_MERGE:          0
cpu0->cpu0_L2C LOAD         ACCESS:     139535 HIT:     111915 MISS:      27620 MSHR_MERGE:          0
cpu0->cpu0_L2C RFO          ACCESS:       8184 HIT:       4279 MISS:       3905 MSHR_MERGE:          0
cpu0->cpu0_L2C PREFETCH     ACCESS:          0 HIT:          0 MISS:          0 MSHR_MERGE:          0
cpu0->cpu0_L2C WRITE        ACCESS:      12112 HIT:      11385 MISS:        727 MSHR_MERGE:          0
cpu0->cpu0_L2C TRANSLATION  ACCESS:        126 HIT:          8 MISS:        118 MSHR_MERGE:          0
cpu0->cpu0_L2C PREFETCH REQUESTED:          0 ISSUED:          0 USEFUL:          0 USELESS:          0
cpu0->cpu0_L2C AVERAGE MISS LATENCY: 41.64 cycles
cpu0->cpu0_L1I TOTAL        ACCESS:      81193 HIT:      81193 MISS:          0 MSHR_MERGE:          0
cpu0->cpu0_L1I LOAD         ACCESS:      81193 HIT:      81193 MISS:          0 MSHR_MERGE:          0
cpu0->cpu0_L1I RFO          ACCESS:          0 HIT:          0 MISS:          0 MSHR_MERGE:          0
cpu0->cpu0_L1I PREFETCH     ACCESS:          0 HIT:          0 MISS:          0 MSHR_MERGE:          0
cpu0->cpu0_L1I WRITE        ACCESS:          0 HIT:          0 MISS:          0 MSHR_MERGE:          0
cpu0->cpu0_L1I TRANSLATION  ACCESS:          0 HIT:          0 MISS:          0 MSHR_MERGE:          0
cpu0->cpu0_L1I PREFETCH REQUESTED:          0 ISSUED:          0 USEFUL:          0 USELESS:          0
cpu0->cpu0_L1I AVERAGE MISS LATENCY: - cycles
cpu0->cpu0_L1D TOTAL        ACCESS:    6819618 HIT:    6585068 MISS:     234550 MSHR_MERGE:      86705
cpu0->cpu0_L1D LOAD         ACCESS:    4356791 HIT:    4189611 MISS:     167180 MSHR_MERGE:      27645
cpu0->cpu0_L1D RFO          ACCESS:          0 HIT:          0 MISS:          0 MSHR_MERGE:          0
cpu0->cpu0_L1D PREFETCH     ACCESS:          0 HIT:          0 MISS:          0 MSHR_MERGE:          0
cpu0->cpu0_L1D WRITE        ACCESS:    2462667 HIT:    2395424 MISS:      67243 MSHR_MERGE:      59059
cpu0->cpu0_L1D TRANSLATION  ACCESS:        160 HIT:         33 MISS:        127 MSHR_MERGE:          1
cpu0->cpu0_L1D PREFETCH REQUESTED:          0 ISSUED:          0 USEFUL:          0 USELESS:          0
cpu0->cpu0_L1D AVERAGE MISS LATENCY: 17.32 cycles
cpu0->cpu0_ITLB TOTAL        ACCESS:      67024 HIT:      67024 MISS:          0 MSHR_MERGE:          0
cpu0->cpu0_ITLB LOAD         ACCESS:      67024 HIT:      67024 MISS:          0 MSHR_MERGE:          0
cpu0->cpu0_ITLB RFO          ACCESS:          0 HIT:          0 MISS:          0 MSHR_MERGE:          0
cpu0->cpu0_ITLB PREFETCH     ACCESS:          0 HIT:          0 MISS:          0 MSHR_MERGE:          0
cpu0->cpu0_ITLB WRITE        ACCESS:          0 HIT:          0 MISS:          0 MSHR_MERGE:          0
cpu0->cpu0_ITLB TRANSLATION  ACCESS:          0 HIT:          0 MISS:          0 MSHR_MERGE:          0
cpu0->cpu0_ITLB PREFETCH REQUESTED:          0 ISSUED:          0 USEFUL:          0 USELESS:          0
cpu0->cpu0_ITLB AVERAGE MISS LATENCY: - cycles
cpu0->cpu0_DTLB TOTAL        ACCESS:    6509543 HIT:    6502735 MISS:       6808 MSHR_MERGE:       1578
cpu0->cpu0_DTLB LOAD         ACCESS:    6509543 HIT:    6502735 MISS:       6808 MSHR_MERGE:       1578
cpu0->cpu0_DTLB RFO          ACCESS:          0 HIT:          0 MISS:          0 MSHR_MERGE:          0
cpu0->cpu0_DTLB PREFETCH     ACCESS:          0 HIT:          0 MISS:          0 MSHR_MERGE:          0
cpu0->cpu0_DTLB WRITE        ACCESS:          0 HIT:          0 MISS:          0 MSHR_MERGE:          0
cpu0->cpu0_DTLB TRANSLATION  ACCESS:          0 HIT:          0 MISS:          0 MSHR_MERGE:          0
cpu0->cpu0_DTLB PREFETCH REQUESTED:          0 ISSUED:          0 USEFUL:          0 USELESS:          0
cpu0->cpu0_DTLB AVERAGE MISS LATENCY: 16.08 cycles
cpu0->LLC TOTAL        ACCESS:      33852 HIT:      28462 MISS:       5390 MSHR_MERGE:          0
cpu0->LLC LOAD         ACCESS:      27620 HIT:      26171 MISS:       1449 MSHR_MERGE:          0
cpu0->LLC RFO          ACCESS:       3905 HIT:         72 MISS:       3833 MSHR_MERGE:          0
cpu0->LLC PREFETCH     ACCESS:          0 HIT:          0 MISS:          0 MSHR_MERGE:          0
cpu0->LLC WRITE        ACCESS:       2209 HIT:       2209 MISS:          0 MSHR_MERGE:          0
cpu0->LLC TRANSLATION  ACCESS:        118 HIT:         10 MISS:        108 MSHR_MERGE:          0
cpu0->LLC PREFETCH REQUESTED:          0 ISSUED:          0 USEFUL:          0 USELESS:          0
cpu0->LLC AVERAGE MISS LATENCY: 160.5 cycles

DRAM Statistics

Channel 0 RQ ROW_BUFFER_HIT:       1373
  ROW_BUFFER_MISS:       4017
  AVG DBUS CONGESTED CYCLE: 2.669
Channel 0 WQ ROW_BUFFER_HIT:          0
  ROW_BUFFER_MISS:          0
  FULL:          0
Channel 0 REFRESHES ISSUED:       1238
