[VMEM] WARNING: physical memory size is smaller than virtual memory size.

*** ChampSim Multicore Out-of-Order Simulator ***
Warmup Instructions: 5000000
Simulation Instructions: 25000000
Number of CPUs: 1
Page size: 4096

Off-chip DRAM Size: 16 GiB Channels: 1 Width: 64-bit Data Rate: 3205 MT/s
Warmup finished CPU 0 instructions: 5000001 cycles: 1471264 cumulative IPC: 3.398 (Simulation time: 00 hr 00 min 20 sec)
Warmup complete CPU 0 instructions: 5000001 cycles: 1471264 cumulative IPC: 3.398 (Simulation time: 00 hr 00 min 20 sec)
Heartbeat CPU 0 instructions: 10000004 cycles: 3922637 heartbeat IPC: 2.549 cumulative IPC: 2.04 (Simulation time: 00 hr 00 min 49 sec)
Heartbeat CPU 0 instructions: 20000005 cycles: 12976445 heartbeat IPC: 1.105 cumulative IPC: 1.304 (Simulation time: 00 hr 02 min 00 sec)
Heartbeat CPU 0 instructions: 30000005 cycles: 20076334 heartbeat IPC: 1.408 cumulative IPC: 1.344 (Simulation time: 00 hr 02 min 59 sec)
Simulation finished CPU 0 instructions: 25000004 cycles: 18605070 cumulative IPC: 1.344 (Simulation time: 00 hr 02 min 59 sec)
Simulation complete CPU 0 instructions: 25000004 cycles: 18605070 cumulative IPC: 1.344 (Simulation time: 00 hr 02 min 59 sec)

ChampSim completed all CPUs

=== Simulation ===
CPU 0 runs ../../hw2/traces/654.roms_s-293B.champsimtrace.xz

Region of Interest Statistics

CPU 0 cumulative IPC: 1.344 instructions: 25000004 cycles: 18605070
CPU 0 Branch Prediction Accuracy: 99.8% MPKI: 0.02152 Average ROB Occupancy at Mispredict: 337.1
Branch type MPKI
BRANCH_DIRECT_JUMP: 0
BRANCH_INDIRECT: 0
BRANCH_CONDITIONAL: 0.02152
BRANCH_DIRECT_CALL: 0
BRANCH_INDIRECT_CALL: 0
BRANCH_RETURN: 0

cpu0->cpu0_STLB TOTAL        ACCESS:       6462 HIT:       4210 MISS:       2252 MSHR_MERGE:          0
cpu0->cpu0_STLB LOAD         ACCESS:       6462 HIT:       4210 MISS:       2252 MSHR_MERGE:          0
cpu0->cpu0_STLB RFO          ACCESS:          0 HIT:          0 MISS:          0 MSHR_MERGE:          0
cpu0->cpu0_STLB PREFETCH     ACCESS:          0 HIT:          0 MISS:          0 MSHR_MERGE:          0
cpu0->cpu0_STLB WRITE        ACCESS:          0 HIT:          0 MISS:          0 MSHR_MERGE:          0
cpu0->cpu0_STLB TRANSLATION  ACCESS:          0 HIT:          0 MISS:          0 MSHR_MERGE:          0
cpu0->cpu0_STLB PREFETCH REQUESTED:          0 ISSUED:          0 USEFUL:          0 USELESS:          0
cpu0->cpu0_STLB AVERAGE MISS LATENCY: 880.6 cycles
cpu0->cpu0_L2C TOTAL        ACCESS:     401591 HIT:      79436 MISS:     322155 MSHR_MERGE:          0
cpu0->cpu0_L2C LOAD         ACCESS:     146914 HIT:      29558 MISS:     117356 MSHR_MERGE:          0
cpu0->cpu0_L2C RFO          ACCESS:     124927 HIT:       6981 MISS:     117946 MSHR_MERGE:          0
cpu0->cpu0_L2C PREFETCH     ACCESS:          0 HIT:          0 MISS:          0 MSHR_MERGE:          0
cpu0->cpu0_L2C WRITE        ACCESS:     125178 HIT:      42706 MISS:      82472 MSHR_MERGE:          0
cpu0->cpu0_L2C TRANSLATION  ACCESS:       4572 HIT:        191 MISS:       4381 MSHR_MERGE:          0
cpu0->cpu0_L2C PREFETCH REQUESTED:          0 ISSUED:          0 USEFUL:          0 USELESS:          0
cpu0->cpu0_L2C AVERAGE MISS LATENCY: 120 cycles
cpu0->cpu0_L1I TOTAL        ACCESS:    4961061 HIT:    4961053 MISS:          8 MSHR_MERGE:          2
cpu0->cpu0_L1I LOAD         ACCESS:    4961061 HIT:    4961053 MISS:          8 MSHR_MERGE:          2
cpu0->cpu0_L1I RFO          ACCESS:          0 HIT:          0 MISS:          0 MSHR_MERGE:          0
cpu0->cpu0_L1I PREFETCH     ACCESS:          0 HIT:          0 MISS:          0 MSHR_MERGE:          0
cpu0->cpu0_L1I WRITE        ACCESS:          0 HIT:          0 MISS:          0 MSHR_MERGE:          0
cpu0->cpu0_L1I TRANSLATION  ACCESS:          0 HIT:          0 MISS:          0 MSHR_MERGE:          0
cpu0->cpu0_L1I PREFETCH REQUESTED:          0 ISSUED:          0 USEFUL:          0 USELESS:          0
cpu0->cpu0_L1I AVERAGE MISS LATENCY: 298.5 cycles
cpu0->cpu0_L1D TOTAL        ACCESS:    7641017 HIT:    7013496 MISS:     627521 MSHR_MERGE:     351084
cpu0->cpu0_L1D LOAD         ACCESS:    5268764 HIT:    5025188 MISS:     243576 MSHR_MERGE:      96668
cpu0->cpu0_L1D RFO          ACCESS:          0 HIT:          0 MISS:          0 MSHR_MERGE:          0
cpu0->cpu0_L1D PREFETCH     ACCESS:          0 HIT:          0 MISS:          0 MSHR_MERGE:          0
cpu0->cpu0_L1D WRITE        ACCESS:    2366627 HIT:    1987275 MISS:     379352 MSHR_MERGE:     254395
cpu0->cpu0_L1D TRANSLATION  ACCESS:       5626 HIT:       1033 MISS:       4593 MSHR_MERGE:         21
cpu0->cpu0_L1D PREFETCH REQUESTED:          0 ISSUED:          0 USEFUL:          0 USELESS:          0
cpu0->cpu0_L1D AVERAGE MISS LATENCY: 147.6 cycles
cpu0->cpu0_ITLB TOTAL        ACCESS:    3646277 HIT:    3646277 MISS:          0 MSHR_MERGE:          0
cpu0->cpu0_ITLB LOAD         ACCESS:    3646277 HIT:    3646277 MISS:          0 MSHR_MERGE:          0
cpu0->cpu0_ITLB RFO          ACCESS:          0 HIT:          0 MISS:          0 MSHR_MERGE:          0
cpu0->cpu0_ITLB PREFETCH     ACCESS:          0 HIT:          0 MISS:          0 MSHR_MERGE:          0
cpu0->cpu0_ITLB WRITE        ACCESS:          0 HIT:          0 MISS:          0 MSHR_MERGE:          0
cpu0->cpu0_ITLB TRANSLATION  ACCESS:          0 HIT:          0 MISS:          0 MSHR_MERGE:          0
cpu0->cpu0_ITLB PREFETCH REQUESTED:          0 ISSUED:          0 USEFUL:          0 USELESS:          0
cpu0->cpu0_ITLB AVERAGE MISS LATENCY: - cycles
cpu0->cpu0_DTLB TOTAL        ACCESS:    7198929 HIT:    7183019 MISS:      15910 MSHR_MERGE:       9448
cpu0->cpu0_DTLB LOAD         ACCESS:    7198929 HIT:    7183019 MISS:      15910 MSHR_MERGE:       9448
cpu0->cpu0_DTLB RFO          ACCESS:          0 HIT:          0 MISS:          0 MSHR_MERGE:          0
cpu0->cpu0_DTLB PREFETCH     ACCESS:          0 HIT:          0 MISS:          0 MSHR_MERGE:          0
cpu0->cpu0_DTLB WRITE        ACCESS:          0 HIT:          0 MISS:          0 MSHR_MERGE:          0
cpu0->cpu0_DTLB TRANSLATION  ACCESS:          0 HIT:          0 MISS:          0 MSHR_MERGE:          0
cpu0->cpu0_DTLB PREFETCH REQUESTED:          0 ISSUED:          0 USEFUL:          0 USELESS:          0
cpu0->cpu0_DTLB AVERAGE MISS LATENCY: 312.2 cycles
cpu0->LLC TOTAL        ACCESS:     356430 HIT:     193211 MISS:     163219 MSHR_MERGE:          0
cpu0->LLC LOAD         ACCESS:     117356 HIT:      55833 MISS:      61523 MSHR_MERGE:          0
cpu0->LLC RFO          ACCESS:     117946 HIT:      33530 MISS:      84416 MSHR_MERGE:          0
cpu0->LLC PREFETCH     ACCESS:          0 HIT:          0 MISS:          0 MSHR_MERGE:          0
cpu0->LLC WRITE        ACCESS:     116747 HIT:     103450 MISS:      13297 MSHR_MERGE:          0
cpu0->LLC TRANSLATION  ACCESS:       4381 HIT:        398 MISS:       3983 MSHR_MERGE:          0
cpu0->LLC PREFETCH REQUESTED:          0 ISSUED:          0 USEFUL:          0 USELESS:          0
cpu0->LLC AVERAGE MISS LATENCY: 212.7 cycles

DRAM Statistics

Channel 0 RQ ROW_BUFFER_HIT:        693
  ROW_BUFFER_MISS:     149034
  AVG DBUS CONGESTED CYCLE: 7.394
Channel 0 WQ ROW_BUFFER_HIT:      27361
  ROW_BUFFER_MISS:      64326
  FULL:          0
Channel 0 REFRESHES ISSUED:       1551
